* XSpice netlist created from SPICE and liberty sources by spi2xspice.py
*SPICE netlist created from BLIF module BundleParser by blif2BSpice
.subckt BundleParser a_vdd a_gnd a_clock_i a_enable_i a_bundle_i_127_ a_bundle_i_126_ a_bundle_i_125_ a_bundle_i_124_ a_bundle_i_123_ a_bundle_i_122_ a_bundle_i_121_ a_bundle_i_120_ a_bundle_i_119_ a_bundle_i_118_ a_bundle_i_117_ a_bundle_i_116_ a_bundle_i_115_ a_bundle_i_114_ a_bundle_i_113_ a_bundle_i_112_ a_bundle_i_111_ a_bundle_i_110_ a_bundle_i_109_ a_bundle_i_108_ a_bundle_i_107_ a_bundle_i_106_ a_bundle_i_105_ a_bundle_i_104_ a_bundle_i_103_ a_bundle_i_102_ a_bundle_i_101_ a_bundle_i_100_ a_bundle_i_99_ a_bundle_i_98_ a_bundle_i_97_ a_bundle_i_96_ a_bundle_i_95_ a_bundle_i_94_ a_bundle_i_93_ a_bundle_i_92_ a_bundle_i_91_ a_bundle_i_90_ a_bundle_i_89_ a_bundle_i_88_ a_bundle_i_87_ a_bundle_i_86_ a_bundle_i_85_ a_bundle_i_84_ a_bundle_i_83_ a_bundle_i_82_ a_bundle_i_81_ a_bundle_i_80_ a_bundle_i_79_ a_bundle_i_78_ a_bundle_i_77_ a_bundle_i_76_ a_bundle_i_75_ a_bundle_i_74_ a_bundle_i_73_ a_bundle_i_72_ a_bundle_i_71_ a_bundle_i_70_ a_bundle_i_69_ a_bundle_i_68_ a_bundle_i_67_ a_bundle_i_66_ a_bundle_i_65_ a_bundle_i_64_ a_bundle_i_63_ a_bundle_i_62_ a_bundle_i_61_ a_bundle_i_60_ a_bundle_i_59_ a_bundle_i_58_ a_bundle_i_57_ a_bundle_i_56_ a_bundle_i_55_ a_bundle_i_54_ a_bundle_i_53_ a_bundle_i_52_ a_bundle_i_51_ a_bundle_i_50_ a_bundle_i_49_ a_bundle_i_48_ a_bundle_i_47_ a_bundle_i_46_ a_bundle_i_45_ a_bundle_i_44_ a_bundle_i_43_ a_bundle_i_42_ a_bundle_i_41_ a_bundle_i_40_ a_bundle_i_39_ a_bundle_i_38_ a_bundle_i_37_ a_bundle_i_36_ a_bundle_i_35_ a_bundle_i_34_ a_bundle_i_33_ a_bundle_i_32_ a_bundle_i_31_ a_bundle_i_30_ a_bundle_i_29_ a_bundle_i_28_ a_bundle_i_27_ a_bundle_i_26_ a_bundle_i_25_ a_bundle_i_24_ a_bundle_i_23_ a_bundle_i_22_ a_bundle_i_21_ a_bundle_i_20_ a_bundle_i_19_ a_bundle_i_18_ a_bundle_i_17_ a_bundle_i_16_ a_bundle_i_15_ a_bundle_i_14_ a_bundle_i_13_ a_bundle_i_12_ a_bundle_i_11_ a_bundle_i_10_ a_bundle_i_9_ a_bundle_i_8_ a_bundle_i_7_ a_bundle_i_6_ a_bundle_i_5_ a_bundle_i_4_ a_bundle_i_3_ a_bundle_i_2_ a_bundle_i_1_ a_bundle_i_0_ a_bundleAddress_i_63_ a_bundleAddress_i_62_ a_bundleAddress_i_61_ a_bundleAddress_i_60_ a_bundleAddress_i_59_ a_bundleAddress_i_58_ a_bundleAddress_i_57_ a_bundleAddress_i_56_ a_bundleAddress_i_55_ a_bundleAddress_i_54_ a_bundleAddress_i_53_ a_bundleAddress_i_52_ a_bundleAddress_i_51_ a_bundleAddress_i_50_ a_bundleAddress_i_49_ a_bundleAddress_i_48_ a_bundleAddress_i_47_ a_bundleAddress_i_46_ a_bundleAddress_i_45_ a_bundleAddress_i_44_ a_bundleAddress_i_43_ a_bundleAddress_i_42_ a_bundleAddress_i_41_ a_bundleAddress_i_40_ a_bundleAddress_i_39_ a_bundleAddress_i_38_ a_bundleAddress_i_37_ a_bundleAddress_i_36_ a_bundleAddress_i_35_ a_bundleAddress_i_34_ a_bundleAddress_i_33_ a_bundleAddress_i_32_ a_bundleAddress_i_31_ a_bundleAddress_i_30_ a_bundleAddress_i_29_ a_bundleAddress_i_28_ a_bundleAddress_i_27_ a_bundleAddress_i_26_ a_bundleAddress_i_25_ a_bundleAddress_i_24_ a_bundleAddress_i_23_ a_bundleAddress_i_22_ a_bundleAddress_i_21_ a_bundleAddress_i_20_ a_bundleAddress_i_19_ a_bundleAddress_i_18_ a_bundleAddress_i_17_ a_bundleAddress_i_16_ a_bundleAddress_i_15_ a_bundleAddress_i_14_ a_bundleAddress_i_13_ a_bundleAddress_i_12_ a_bundleAddress_i_11_ a_bundleAddress_i_10_ a_bundleAddress_i_9_ a_bundleAddress_i_8_ a_bundleAddress_i_7_ a_bundleAddress_i_6_ a_bundleAddress_i_5_ a_bundleAddress_i_4_ a_bundleAddress_i_3_ a_bundleAddress_i_2_ a_bundleAddress_i_1_ a_bundleAddress_i_0_ a_bundleLen_i_1_ a_bundleLen_i_0_ a_is64Bit_i a_bundlePid_i_31_ a_bundlePid_i_30_ a_bundlePid_i_29_ a_bundlePid_i_28_ a_bundlePid_i_27_ a_bundlePid_i_26_ a_bundlePid_i_25_ a_bundlePid_i_24_ a_bundlePid_i_23_ a_bundlePid_i_22_ a_bundlePid_i_21_ a_bundlePid_i_20_ a_bundlePid_i_19_ a_bundlePid_i_18_ a_bundlePid_i_17_ a_bundlePid_i_16_ a_bundlePid_i_15_ a_bundlePid_i_14_ a_bundlePid_i_13_ a_bundlePid_i_12_ a_bundlePid_i_11_ a_bundlePid_i_10_ a_bundlePid_i_9_ a_bundlePid_i_8_ a_bundlePid_i_7_ a_bundlePid_i_6_ a_bundlePid_i_5_ a_bundlePid_i_4_ a_bundlePid_i_3_ a_bundlePid_i_2_ a_bundlePid_i_1_ a_bundlePid_i_0_ a_bundleTid_i_63_ a_bundleTid_i_62_ a_bundleTid_i_61_ a_bundleTid_i_60_ a_bundleTid_i_59_ a_bundleTid_i_58_ a_bundleTid_i_57_ a_bundleTid_i_56_ a_bundleTid_i_55_ a_bundleTid_i_54_ a_bundleTid_i_53_ a_bundleTid_i_52_ a_bundleTid_i_51_ a_bundleTid_i_50_ a_bundleTid_i_49_ a_bundleTid_i_48_ a_bundleTid_i_47_ a_bundleTid_i_46_ a_bundleTid_i_45_ a_bundleTid_i_44_ a_bundleTid_i_43_ a_bundleTid_i_42_ a_bundleTid_i_41_ a_bundleTid_i_40_ a_bundleTid_i_39_ a_bundleTid_i_38_ a_bundleTid_i_37_ a_bundleTid_i_36_ a_bundleTid_i_35_ a_bundleTid_i_34_ a_bundleTid_i_33_ a_bundleTid_i_32_ a_bundleTid_i_31_ a_bundleTid_i_30_ a_bundleTid_i_29_ a_bundleTid_i_28_ a_bundleTid_i_27_ a_bundleTid_i_26_ a_bundleTid_i_25_ a_bundleTid_i_24_ a_bundleTid_i_23_ a_bundleTid_i_22_ a_bundleTid_i_21_ a_bundleTid_i_20_ a_bundleTid_i_19_ a_bundleTid_i_18_ a_bundleTid_i_17_ a_bundleTid_i_16_ a_bundleTid_i_15_ a_bundleTid_i_14_ a_bundleTid_i_13_ a_bundleTid_i_12_ a_bundleTid_i_11_ a_bundleTid_i_10_ a_bundleTid_i_9_ a_bundleTid_i_8_ a_bundleTid_i_7_ a_bundleTid_i_6_ a_bundleTid_i_5_ a_bundleTid_i_4_ a_bundleTid_i_3_ a_bundleTid_i_2_ a_bundleTid_i_1_ a_bundleTid_i_0_ a_bundleStartMajId_i_63_ a_bundleStartMajId_i_62_ a_bundleStartMajId_i_61_ a_bundleStartMajId_i_60_ a_bundleStartMajId_i_59_ a_bundleStartMajId_i_58_ a_bundleStartMajId_i_57_ a_bundleStartMajId_i_56_ a_bundleStartMajId_i_55_ a_bundleStartMajId_i_54_ a_bundleStartMajId_i_53_ a_bundleStartMajId_i_52_ a_bundleStartMajId_i_51_ a_bundleStartMajId_i_50_ a_bundleStartMajId_i_49_ a_bundleStartMajId_i_48_ a_bundleStartMajId_i_47_ a_bundleStartMajId_i_46_ a_bundleStartMajId_i_45_ a_bundleStartMajId_i_44_ a_bundleStartMajId_i_43_ a_bundleStartMajId_i_42_ a_bundleStartMajId_i_41_ a_bundleStartMajId_i_40_ a_bundleStartMajId_i_39_ a_bundleStartMajId_i_38_ a_bundleStartMajId_i_37_ a_bundleStartMajId_i_36_ a_bundleStartMajId_i_35_ a_bundleStartMajId_i_34_ a_bundleStartMajId_i_33_ a_bundleStartMajId_i_32_ a_bundleStartMajId_i_31_ a_bundleStartMajId_i_30_ a_bundleStartMajId_i_29_ a_bundleStartMajId_i_28_ a_bundleStartMajId_i_27_ a_bundleStartMajId_i_26_ a_bundleStartMajId_i_25_ a_bundleStartMajId_i_24_ a_bundleStartMajId_i_23_ a_bundleStartMajId_i_22_ a_bundleStartMajId_i_21_ a_bundleStartMajId_i_20_ a_bundleStartMajId_i_19_ a_bundleStartMajId_i_18_ a_bundleStartMajId_i_17_ a_bundleStartMajId_i_16_ a_bundleStartMajId_i_15_ a_bundleStartMajId_i_14_ a_bundleStartMajId_i_13_ a_bundleStartMajId_i_12_ a_bundleStartMajId_i_11_ a_bundleStartMajId_i_10_ a_bundleStartMajId_i_9_ a_bundleStartMajId_i_8_ a_bundleStartMajId_i_7_ a_bundleStartMajId_i_6_ a_bundleStartMajId_i_5_ a_bundleStartMajId_i_4_ a_bundleStartMajId_i_3_ a_bundleStartMajId_i_2_ a_bundleStartMajId_i_1_ a_bundleStartMajId_i_0_ a_enable1_i a_enable2_i a_enable3_i a_enable4_i a_enable1_o a_enable2_o a_enable3_o a_enable4_o a_instr1_o_31_ a_instr1_o_30_ a_instr1_o_29_ a_instr1_o_28_ a_instr1_o_27_ a_instr1_o_26_ a_instr1_o_25_ a_instr1_o_24_ a_instr1_o_23_ a_instr1_o_22_ a_instr1_o_21_ a_instr1_o_20_ a_instr1_o_19_ a_instr1_o_18_ a_instr1_o_17_ a_instr1_o_16_ a_instr1_o_15_ a_instr1_o_14_ a_instr1_o_13_ a_instr1_o_12_ a_instr1_o_11_ a_instr1_o_10_ a_instr1_o_9_ a_instr1_o_8_ a_instr1_o_7_ a_instr1_o_6_ a_instr1_o_5_ a_instr1_o_4_ a_instr1_o_3_ a_instr1_o_2_ a_instr1_o_1_ a_instr1_o_0_ a_instr2_o_31_ a_instr2_o_30_ a_instr2_o_29_ a_instr2_o_28_ a_instr2_o_27_ a_instr2_o_26_ a_instr2_o_25_ a_instr2_o_24_ a_instr2_o_23_ a_instr2_o_22_ a_instr2_o_21_ a_instr2_o_20_ a_instr2_o_19_ a_instr2_o_18_ a_instr2_o_17_ a_instr2_o_16_ a_instr2_o_15_ a_instr2_o_14_ a_instr2_o_13_ a_instr2_o_12_ a_instr2_o_11_ a_instr2_o_10_ a_instr2_o_9_ a_instr2_o_8_ a_instr2_o_7_ a_instr2_o_6_ a_instr2_o_5_ a_instr2_o_4_ a_instr2_o_3_ a_instr2_o_2_ a_instr2_o_1_ a_instr2_o_0_ a_instr3_o_31_ a_instr3_o_30_ a_instr3_o_29_ a_instr3_o_28_ a_instr3_o_27_ a_instr3_o_26_ a_instr3_o_25_ a_instr3_o_24_ a_instr3_o_23_ a_instr3_o_22_ a_instr3_o_21_ a_instr3_o_20_ a_instr3_o_19_ a_instr3_o_18_ a_instr3_o_17_ a_instr3_o_16_ a_instr3_o_15_ a_instr3_o_14_ a_instr3_o_13_ a_instr3_o_12_ a_instr3_o_11_ a_instr3_o_10_ a_instr3_o_9_ a_instr3_o_8_ a_instr3_o_7_ a_instr3_o_6_ a_instr3_o_5_ a_instr3_o_4_ a_instr3_o_3_ a_instr3_o_2_ a_instr3_o_1_ a_instr3_o_0_ a_instr4_o_31_ a_instr4_o_30_ a_instr4_o_29_ a_instr4_o_28_ a_instr4_o_27_ a_instr4_o_26_ a_instr4_o_25_ a_instr4_o_24_ a_instr4_o_23_ a_instr4_o_22_ a_instr4_o_21_ a_instr4_o_20_ a_instr4_o_19_ a_instr4_o_18_ a_instr4_o_17_ a_instr4_o_16_ a_instr4_o_15_ a_instr4_o_14_ a_instr4_o_13_ a_instr4_o_12_ a_instr4_o_11_ a_instr4_o_10_ a_instr4_o_9_ a_instr4_o_8_ a_instr4_o_7_ a_instr4_o_6_ a_instr4_o_5_ a_instr4_o_4_ a_instr4_o_3_ a_instr4_o_2_ a_instr4_o_1_ a_instr4_o_0_ a_addr1_o_63_ a_addr1_o_62_ a_addr1_o_61_ a_addr1_o_60_ a_addr1_o_59_ a_addr1_o_58_ a_addr1_o_57_ a_addr1_o_56_ a_addr1_o_55_ a_addr1_o_54_ a_addr1_o_53_ a_addr1_o_52_ a_addr1_o_51_ a_addr1_o_50_ a_addr1_o_49_ a_addr1_o_48_ a_addr1_o_47_ a_addr1_o_46_ a_addr1_o_45_ a_addr1_o_44_ a_addr1_o_43_ a_addr1_o_42_ a_addr1_o_41_ a_addr1_o_40_ a_addr1_o_39_ a_addr1_o_38_ a_addr1_o_37_ a_addr1_o_36_ a_addr1_o_35_ a_addr1_o_34_ a_addr1_o_33_ a_addr1_o_32_ a_addr1_o_31_ a_addr1_o_30_ a_addr1_o_29_ a_addr1_o_28_ a_addr1_o_27_ a_addr1_o_26_ a_addr1_o_25_ a_addr1_o_24_ a_addr1_o_23_ a_addr1_o_22_ a_addr1_o_21_ a_addr1_o_20_ a_addr1_o_19_ a_addr1_o_18_ a_addr1_o_17_ a_addr1_o_16_ a_addr1_o_15_ a_addr1_o_14_ a_addr1_o_13_ a_addr1_o_12_ a_addr1_o_11_ a_addr1_o_10_ a_addr1_o_9_ a_addr1_o_8_ a_addr1_o_7_ a_addr1_o_6_ a_addr1_o_5_ a_addr1_o_4_ a_addr1_o_3_ a_addr1_o_2_ a_addr1_o_1_ a_addr1_o_0_ a_addr2_o_63_ a_addr2_o_62_ a_addr2_o_61_ a_addr2_o_60_ a_addr2_o_59_ a_addr2_o_58_ a_addr2_o_57_ a_addr2_o_56_ a_addr2_o_55_ a_addr2_o_54_ a_addr2_o_53_ a_addr2_o_52_ a_addr2_o_51_ a_addr2_o_50_ a_addr2_o_49_ a_addr2_o_48_ a_addr2_o_47_ a_addr2_o_46_ a_addr2_o_45_ a_addr2_o_44_ a_addr2_o_43_ a_addr2_o_42_ a_addr2_o_41_ a_addr2_o_40_ a_addr2_o_39_ a_addr2_o_38_ a_addr2_o_37_ a_addr2_o_36_ a_addr2_o_35_ a_addr2_o_34_ a_addr2_o_33_ a_addr2_o_32_ a_addr2_o_31_ a_addr2_o_30_ a_addr2_o_29_ a_addr2_o_28_ a_addr2_o_27_ a_addr2_o_26_ a_addr2_o_25_ a_addr2_o_24_ a_addr2_o_23_ a_addr2_o_22_ a_addr2_o_21_ a_addr2_o_20_ a_addr2_o_19_ a_addr2_o_18_ a_addr2_o_17_ a_addr2_o_16_ a_addr2_o_15_ a_addr2_o_14_ a_addr2_o_13_ a_addr2_o_12_ a_addr2_o_11_ a_addr2_o_10_ a_addr2_o_9_ a_addr2_o_8_ a_addr2_o_7_ a_addr2_o_6_ a_addr2_o_5_ a_addr2_o_4_ a_addr2_o_3_ a_addr2_o_2_ a_addr2_o_1_ a_addr2_o_0_ a_addr3_o_63_ a_addr3_o_62_ a_addr3_o_61_ a_addr3_o_60_ a_addr3_o_59_ a_addr3_o_58_ a_addr3_o_57_ a_addr3_o_56_ a_addr3_o_55_ a_addr3_o_54_ a_addr3_o_53_ a_addr3_o_52_ a_addr3_o_51_ a_addr3_o_50_ a_addr3_o_49_ a_addr3_o_48_ a_addr3_o_47_ a_addr3_o_46_ a_addr3_o_45_ a_addr3_o_44_ a_addr3_o_43_ a_addr3_o_42_ a_addr3_o_41_ a_addr3_o_40_ a_addr3_o_39_ a_addr3_o_38_ a_addr3_o_37_ a_addr3_o_36_ a_addr3_o_35_ a_addr3_o_34_ a_addr3_o_33_ a_addr3_o_32_ a_addr3_o_31_ a_addr3_o_30_ a_addr3_o_29_ a_addr3_o_28_ a_addr3_o_27_ a_addr3_o_26_ a_addr3_o_25_ a_addr3_o_24_ a_addr3_o_23_ a_addr3_o_22_ a_addr3_o_21_ a_addr3_o_20_ a_addr3_o_19_ a_addr3_o_18_ a_addr3_o_17_ a_addr3_o_16_ a_addr3_o_15_ a_addr3_o_14_ a_addr3_o_13_ a_addr3_o_12_ a_addr3_o_11_ a_addr3_o_10_ a_addr3_o_9_ a_addr3_o_8_ a_addr3_o_7_ a_addr3_o_6_ a_addr3_o_5_ a_addr3_o_4_ a_addr3_o_3_ a_addr3_o_2_ a_addr3_o_1_ a_addr3_o_0_ a_addr4_o_63_ a_addr4_o_62_ a_addr4_o_61_ a_addr4_o_60_ a_addr4_o_59_ a_addr4_o_58_ a_addr4_o_57_ a_addr4_o_56_ a_addr4_o_55_ a_addr4_o_54_ a_addr4_o_53_ a_addr4_o_52_ a_addr4_o_51_ a_addr4_o_50_ a_addr4_o_49_ a_addr4_o_48_ a_addr4_o_47_ a_addr4_o_46_ a_addr4_o_45_ a_addr4_o_44_ a_addr4_o_43_ a_addr4_o_42_ a_addr4_o_41_ a_addr4_o_40_ a_addr4_o_39_ a_addr4_o_38_ a_addr4_o_37_ a_addr4_o_36_ a_addr4_o_35_ a_addr4_o_34_ a_addr4_o_33_ a_addr4_o_32_ a_addr4_o_31_ a_addr4_o_30_ a_addr4_o_29_ a_addr4_o_28_ a_addr4_o_27_ a_addr4_o_26_ a_addr4_o_25_ a_addr4_o_24_ a_addr4_o_23_ a_addr4_o_22_ a_addr4_o_21_ a_addr4_o_20_ a_addr4_o_19_ a_addr4_o_18_ a_addr4_o_17_ a_addr4_o_16_ a_addr4_o_15_ a_addr4_o_14_ a_addr4_o_13_ a_addr4_o_12_ a_addr4_o_11_ a_addr4_o_10_ a_addr4_o_9_ a_addr4_o_8_ a_addr4_o_7_ a_addr4_o_6_ a_addr4_o_5_ a_addr4_o_4_ a_addr4_o_3_ a_addr4_o_2_ a_addr4_o_1_ a_addr4_o_0_ a_is64b1_o a_is64b2_o a_is64b3_o a_is64b4_o a_pid1_o_31_ a_pid1_o_30_ a_pid1_o_29_ a_pid1_o_28_ a_pid1_o_27_ a_pid1_o_26_ a_pid1_o_25_ a_pid1_o_24_ a_pid1_o_23_ a_pid1_o_22_ a_pid1_o_21_ a_pid1_o_20_ a_pid1_o_19_ a_pid1_o_18_ a_pid1_o_17_ a_pid1_o_16_ a_pid1_o_15_ a_pid1_o_14_ a_pid1_o_13_ a_pid1_o_12_ a_pid1_o_11_ a_pid1_o_10_ a_pid1_o_9_ a_pid1_o_8_ a_pid1_o_7_ a_pid1_o_6_ a_pid1_o_5_ a_pid1_o_4_ a_pid1_o_3_ a_pid1_o_2_ a_pid1_o_1_ a_pid1_o_0_ a_pid2_o_31_ a_pid2_o_30_ a_pid2_o_29_ a_pid2_o_28_ a_pid2_o_27_ a_pid2_o_26_ a_pid2_o_25_ a_pid2_o_24_ a_pid2_o_23_ a_pid2_o_22_ a_pid2_o_21_ a_pid2_o_20_ a_pid2_o_19_ a_pid2_o_18_ a_pid2_o_17_ a_pid2_o_16_ a_pid2_o_15_ a_pid2_o_14_ a_pid2_o_13_ a_pid2_o_12_ a_pid2_o_11_ a_pid2_o_10_ a_pid2_o_9_ a_pid2_o_8_ a_pid2_o_7_ a_pid2_o_6_ a_pid2_o_5_ a_pid2_o_4_ a_pid2_o_3_ a_pid2_o_2_ a_pid2_o_1_ a_pid2_o_0_ a_pid3_o_31_ a_pid3_o_30_ a_pid3_o_29_ a_pid3_o_28_ a_pid3_o_27_ a_pid3_o_26_ a_pid3_o_25_ a_pid3_o_24_ a_pid3_o_23_ a_pid3_o_22_ a_pid3_o_21_ a_pid3_o_20_ a_pid3_o_19_ a_pid3_o_18_ a_pid3_o_17_ a_pid3_o_16_ a_pid3_o_15_ a_pid3_o_14_ a_pid3_o_13_ a_pid3_o_12_ a_pid3_o_11_ a_pid3_o_10_ a_pid3_o_9_ a_pid3_o_8_ a_pid3_o_7_ a_pid3_o_6_ a_pid3_o_5_ a_pid3_o_4_ a_pid3_o_3_ a_pid3_o_2_ a_pid3_o_1_ a_pid3_o_0_ a_pid4_o_31_ a_pid4_o_30_ a_pid4_o_29_ a_pid4_o_28_ a_pid4_o_27_ a_pid4_o_26_ a_pid4_o_25_ a_pid4_o_24_ a_pid4_o_23_ a_pid4_o_22_ a_pid4_o_21_ a_pid4_o_20_ a_pid4_o_19_ a_pid4_o_18_ a_pid4_o_17_ a_pid4_o_16_ a_pid4_o_15_ a_pid4_o_14_ a_pid4_o_13_ a_pid4_o_12_ a_pid4_o_11_ a_pid4_o_10_ a_pid4_o_9_ a_pid4_o_8_ a_pid4_o_7_ a_pid4_o_6_ a_pid4_o_5_ a_pid4_o_4_ a_pid4_o_3_ a_pid4_o_2_ a_pid4_o_1_ a_pid4_o_0_ a_tid1_o_63_ a_tid1_o_62_ a_tid1_o_61_ a_tid1_o_60_ a_tid1_o_59_ a_tid1_o_58_ a_tid1_o_57_ a_tid1_o_56_ a_tid1_o_55_ a_tid1_o_54_ a_tid1_o_53_ a_tid1_o_52_ a_tid1_o_51_ a_tid1_o_50_ a_tid1_o_49_ a_tid1_o_48_ a_tid1_o_47_ a_tid1_o_46_ a_tid1_o_45_ a_tid1_o_44_ a_tid1_o_43_ a_tid1_o_42_ a_tid1_o_41_ a_tid1_o_40_ a_tid1_o_39_ a_tid1_o_38_ a_tid1_o_37_ a_tid1_o_36_ a_tid1_o_35_ a_tid1_o_34_ a_tid1_o_33_ a_tid1_o_32_ a_tid1_o_31_ a_tid1_o_30_ a_tid1_o_29_ a_tid1_o_28_ a_tid1_o_27_ a_tid1_o_26_ a_tid1_o_25_ a_tid1_o_24_ a_tid1_o_23_ a_tid1_o_22_ a_tid1_o_21_ a_tid1_o_20_ a_tid1_o_19_ a_tid1_o_18_ a_tid1_o_17_ a_tid1_o_16_ a_tid1_o_15_ a_tid1_o_14_ a_tid1_o_13_ a_tid1_o_12_ a_tid1_o_11_ a_tid1_o_10_ a_tid1_o_9_ a_tid1_o_8_ a_tid1_o_7_ a_tid1_o_6_ a_tid1_o_5_ a_tid1_o_4_ a_tid1_o_3_ a_tid1_o_2_ a_tid1_o_1_ a_tid1_o_0_ a_tid2_o_63_ a_tid2_o_62_ a_tid2_o_61_ a_tid2_o_60_ a_tid2_o_59_ a_tid2_o_58_ a_tid2_o_57_ a_tid2_o_56_ a_tid2_o_55_ a_tid2_o_54_ a_tid2_o_53_ a_tid2_o_52_ a_tid2_o_51_ a_tid2_o_50_ a_tid2_o_49_ a_tid2_o_48_ a_tid2_o_47_ a_tid2_o_46_ a_tid2_o_45_ a_tid2_o_44_ a_tid2_o_43_ a_tid2_o_42_ a_tid2_o_41_ a_tid2_o_40_ a_tid2_o_39_ a_tid2_o_38_ a_tid2_o_37_ a_tid2_o_36_ a_tid2_o_35_ a_tid2_o_34_ a_tid2_o_33_ a_tid2_o_32_ a_tid2_o_31_ a_tid2_o_30_ a_tid2_o_29_ a_tid2_o_28_ a_tid2_o_27_ a_tid2_o_26_ a_tid2_o_25_ a_tid2_o_24_ a_tid2_o_23_ a_tid2_o_22_ a_tid2_o_21_ a_tid2_o_20_ a_tid2_o_19_ a_tid2_o_18_ a_tid2_o_17_ a_tid2_o_16_ a_tid2_o_15_ a_tid2_o_14_ a_tid2_o_13_ a_tid2_o_12_ a_tid2_o_11_ a_tid2_o_10_ a_tid2_o_9_ a_tid2_o_8_ a_tid2_o_7_ a_tid2_o_6_ a_tid2_o_5_ a_tid2_o_4_ a_tid2_o_3_ a_tid2_o_2_ a_tid2_o_1_ a_tid2_o_0_ a_tid3_o_63_ a_tid3_o_62_ a_tid3_o_61_ a_tid3_o_60_ a_tid3_o_59_ a_tid3_o_58_ a_tid3_o_57_ a_tid3_o_56_ a_tid3_o_55_ a_tid3_o_54_ a_tid3_o_53_ a_tid3_o_52_ a_tid3_o_51_ a_tid3_o_50_ a_tid3_o_49_ a_tid3_o_48_ a_tid3_o_47_ a_tid3_o_46_ a_tid3_o_45_ a_tid3_o_44_ a_tid3_o_43_ a_tid3_o_42_ a_tid3_o_41_ a_tid3_o_40_ a_tid3_o_39_ a_tid3_o_38_ a_tid3_o_37_ a_tid3_o_36_ a_tid3_o_35_ a_tid3_o_34_ a_tid3_o_33_ a_tid3_o_32_ a_tid3_o_31_ a_tid3_o_30_ a_tid3_o_29_ a_tid3_o_28_ a_tid3_o_27_ a_tid3_o_26_ a_tid3_o_25_ a_tid3_o_24_ a_tid3_o_23_ a_tid3_o_22_ a_tid3_o_21_ a_tid3_o_20_ a_tid3_o_19_ a_tid3_o_18_ a_tid3_o_17_ a_tid3_o_16_ a_tid3_o_15_ a_tid3_o_14_ a_tid3_o_13_ a_tid3_o_12_ a_tid3_o_11_ a_tid3_o_10_ a_tid3_o_9_ a_tid3_o_8_ a_tid3_o_7_ a_tid3_o_6_ a_tid3_o_5_ a_tid3_o_4_ a_tid3_o_3_ a_tid3_o_2_ a_tid3_o_1_ a_tid3_o_0_ a_tid4_o_63_ a_tid4_o_62_ a_tid4_o_61_ a_tid4_o_60_ a_tid4_o_59_ a_tid4_o_58_ a_tid4_o_57_ a_tid4_o_56_ a_tid4_o_55_ a_tid4_o_54_ a_tid4_o_53_ a_tid4_o_52_ a_tid4_o_51_ a_tid4_o_50_ a_tid4_o_49_ a_tid4_o_48_ a_tid4_o_47_ a_tid4_o_46_ a_tid4_o_45_ a_tid4_o_44_ a_tid4_o_43_ a_tid4_o_42_ a_tid4_o_41_ a_tid4_o_40_ a_tid4_o_39_ a_tid4_o_38_ a_tid4_o_37_ a_tid4_o_36_ a_tid4_o_35_ a_tid4_o_34_ a_tid4_o_33_ a_tid4_o_32_ a_tid4_o_31_ a_tid4_o_30_ a_tid4_o_29_ a_tid4_o_28_ a_tid4_o_27_ a_tid4_o_26_ a_tid4_o_25_ a_tid4_o_24_ a_tid4_o_23_ a_tid4_o_22_ a_tid4_o_21_ a_tid4_o_20_ a_tid4_o_19_ a_tid4_o_18_ a_tid4_o_17_ a_tid4_o_16_ a_tid4_o_15_ a_tid4_o_14_ a_tid4_o_13_ a_tid4_o_12_ a_tid4_o_11_ a_tid4_o_10_ a_tid4_o_9_ a_tid4_o_8_ a_tid4_o_7_ a_tid4_o_6_ a_tid4_o_5_ a_tid4_o_4_ a_tid4_o_3_ a_tid4_o_2_ a_tid4_o_1_ a_tid4_o_0_ a_majID1_o_63_ a_majID1_o_62_ a_majID1_o_61_ a_majID1_o_60_ a_majID1_o_59_ a_majID1_o_58_ a_majID1_o_57_ a_majID1_o_56_ a_majID1_o_55_ a_majID1_o_54_ a_majID1_o_53_ a_majID1_o_52_ a_majID1_o_51_ a_majID1_o_50_ a_majID1_o_49_ a_majID1_o_48_ a_majID1_o_47_ a_majID1_o_46_ a_majID1_o_45_ a_majID1_o_44_ a_majID1_o_43_ a_majID1_o_42_ a_majID1_o_41_ a_majID1_o_40_ a_majID1_o_39_ a_majID1_o_38_ a_majID1_o_37_ a_majID1_o_36_ a_majID1_o_35_ a_majID1_o_34_ a_majID1_o_33_ a_majID1_o_32_ a_majID1_o_31_ a_majID1_o_30_ a_majID1_o_29_ a_majID1_o_28_ a_majID1_o_27_ a_majID1_o_26_ a_majID1_o_25_ a_majID1_o_24_ a_majID1_o_23_ a_majID1_o_22_ a_majID1_o_21_ a_majID1_o_20_ a_majID1_o_19_ a_majID1_o_18_ a_majID1_o_17_ a_majID1_o_16_ a_majID1_o_15_ a_majID1_o_14_ a_majID1_o_13_ a_majID1_o_12_ a_majID1_o_11_ a_majID1_o_10_ a_majID1_o_9_ a_majID1_o_8_ a_majID1_o_7_ a_majID1_o_6_ a_majID1_o_5_ a_majID1_o_4_ a_majID1_o_3_ a_majID1_o_2_ a_majID1_o_1_ a_majID1_o_0_ a_majID2_o_63_ a_majID2_o_62_ a_majID2_o_61_ a_majID2_o_60_ a_majID2_o_59_ a_majID2_o_58_ a_majID2_o_57_ a_majID2_o_56_ a_majID2_o_55_ a_majID2_o_54_ a_majID2_o_53_ a_majID2_o_52_ a_majID2_o_51_ a_majID2_o_50_ a_majID2_o_49_ a_majID2_o_48_ a_majID2_o_47_ a_majID2_o_46_ a_majID2_o_45_ a_majID2_o_44_ a_majID2_o_43_ a_majID2_o_42_ a_majID2_o_41_ a_majID2_o_40_ a_majID2_o_39_ a_majID2_o_38_ a_majID2_o_37_ a_majID2_o_36_ a_majID2_o_35_ a_majID2_o_34_ a_majID2_o_33_ a_majID2_o_32_ a_majID2_o_31_ a_majID2_o_30_ a_majID2_o_29_ a_majID2_o_28_ a_majID2_o_27_ a_majID2_o_26_ a_majID2_o_25_ a_majID2_o_24_ a_majID2_o_23_ a_majID2_o_22_ a_majID2_o_21_ a_majID2_o_20_ a_majID2_o_19_ a_majID2_o_18_ a_majID2_o_17_ a_majID2_o_16_ a_majID2_o_15_ a_majID2_o_14_ a_majID2_o_13_ a_majID2_o_12_ a_majID2_o_11_ a_majID2_o_10_ a_majID2_o_9_ a_majID2_o_8_ a_majID2_o_7_ a_majID2_o_6_ a_majID2_o_5_ a_majID2_o_4_ a_majID2_o_3_ a_majID2_o_2_ a_majID2_o_1_ a_majID2_o_0_ a_majID3_o_63_ a_majID3_o_62_ a_majID3_o_61_ a_majID3_o_60_ a_majID3_o_59_ a_majID3_o_58_ a_majID3_o_57_ a_majID3_o_56_ a_majID3_o_55_ a_majID3_o_54_ a_majID3_o_53_ a_majID3_o_52_ a_majID3_o_51_ a_majID3_o_50_ a_majID3_o_49_ a_majID3_o_48_ a_majID3_o_47_ a_majID3_o_46_ a_majID3_o_45_ a_majID3_o_44_ a_majID3_o_43_ a_majID3_o_42_ a_majID3_o_41_ a_majID3_o_40_ a_majID3_o_39_ a_majID3_o_38_ a_majID3_o_37_ a_majID3_o_36_ a_majID3_o_35_ a_majID3_o_34_ a_majID3_o_33_ a_majID3_o_32_ a_majID3_o_31_ a_majID3_o_30_ a_majID3_o_29_ a_majID3_o_28_ a_majID3_o_27_ a_majID3_o_26_ a_majID3_o_25_ a_majID3_o_24_ a_majID3_o_23_ a_majID3_o_22_ a_majID3_o_21_ a_majID3_o_20_ a_majID3_o_19_ a_majID3_o_18_ a_majID3_o_17_ a_majID3_o_16_ a_majID3_o_15_ a_majID3_o_14_ a_majID3_o_13_ a_majID3_o_12_ a_majID3_o_11_ a_majID3_o_10_ a_majID3_o_9_ a_majID3_o_8_ a_majID3_o_7_ a_majID3_o_6_ a_majID3_o_5_ a_majID3_o_4_ a_majID3_o_3_ a_majID3_o_2_ a_majID3_o_1_ a_majID3_o_0_ a_majID4_o_63_ a_majID4_o_62_ a_majID4_o_61_ a_majID4_o_60_ a_majID4_o_59_ a_majID4_o_58_ a_majID4_o_57_ a_majID4_o_56_ a_majID4_o_55_ a_majID4_o_54_ a_majID4_o_53_ a_majID4_o_52_ a_majID4_o_51_ a_majID4_o_50_ a_majID4_o_49_ a_majID4_o_48_ a_majID4_o_47_ a_majID4_o_46_ a_majID4_o_45_ a_majID4_o_44_ a_majID4_o_43_ a_majID4_o_42_ a_majID4_o_41_ a_majID4_o_40_ a_majID4_o_39_ a_majID4_o_38_ a_majID4_o_37_ a_majID4_o_36_ a_majID4_o_35_ a_majID4_o_34_ a_majID4_o_33_ a_majID4_o_32_ a_majID4_o_31_ a_majID4_o_30_ a_majID4_o_29_ a_majID4_o_28_ a_majID4_o_27_ a_majID4_o_26_ a_majID4_o_25_ a_majID4_o_24_ a_majID4_o_23_ a_majID4_o_22_ a_majID4_o_21_ a_majID4_o_20_ a_majID4_o_19_ a_majID4_o_18_ a_majID4_o_17_ a_majID4_o_16_ a_majID4_o_15_ a_majID4_o_14_ a_majID4_o_13_ a_majID4_o_12_ a_majID4_o_11_ a_majID4_o_10_ a_majID4_o_9_ a_majID4_o_8_ a_majID4_o_7_ a_majID4_o_6_ a_majID4_o_5_ a_majID4_o_4_ a_majID4_o_3_ a_majID4_o_2_ a_majID4_o_1_ a_majID4_o_0_
ABUFX4_1 [_1100__bF$buf7] _1100__bF$buf7_bF$buf3 d_lut_BUFX4
ABUFX4_2 [_1100__bF$buf7] _1100__bF$buf7_bF$buf2 d_lut_BUFX4
ABUFX4_3 [_1100__bF$buf7] _1100__bF$buf7_bF$buf1 d_lut_BUFX4
ABUFX4_4 [_1100__bF$buf7] _1100__bF$buf7_bF$buf0 d_lut_BUFX4
ABUFX4_5 [_1100__bF$buf8] _1100__bF$buf8_bF$buf3 d_lut_BUFX4
ABUFX4_6 [_1100__bF$buf8] _1100__bF$buf8_bF$buf2 d_lut_BUFX4
ABUFX4_7 [_1100__bF$buf8] _1100__bF$buf8_bF$buf1 d_lut_BUFX4
ABUFX4_8 [_1100__bF$buf8] _1100__bF$buf8_bF$buf0 d_lut_BUFX4
ABUFX4_9 [_1100__bF$buf9] _1100__bF$buf9_bF$buf3 d_lut_BUFX4
ABUFX4_10 [_1100__bF$buf9] _1100__bF$buf9_bF$buf2 d_lut_BUFX4
ABUFX4_11 [_1100__bF$buf9] _1100__bF$buf9_bF$buf1 d_lut_BUFX4
ABUFX4_12 [_1100__bF$buf9] _1100__bF$buf9_bF$buf0 d_lut_BUFX4
ABUFX4_13 [_1101_] _1101__hier0_bF$buf6 d_lut_BUFX4
ABUFX4_14 [_1101_] _1101__hier0_bF$buf5 d_lut_BUFX4
ABUFX4_15 [_1101_] _1101__hier0_bF$buf4 d_lut_BUFX4
ABUFX4_16 [_1101_] _1101__hier0_bF$buf3 d_lut_BUFX4
ABUFX4_17 [_1101_] _1101__hier0_bF$buf2 d_lut_BUFX4
ABUFX4_18 [_1101_] _1101__hier0_bF$buf1 d_lut_BUFX4
ABUFX4_19 [_1101_] _1101__hier0_bF$buf0 d_lut_BUFX4
ABUFX4_20 [_1039_] _1039__hier0_bF$buf6 d_lut_BUFX4
ABUFX4_21 [_1039_] _1039__hier0_bF$buf5 d_lut_BUFX4
ABUFX4_22 [_1039_] _1039__hier0_bF$buf4 d_lut_BUFX4
ABUFX4_23 [_1039_] _1039__hier0_bF$buf3 d_lut_BUFX4
ABUFX4_24 [_1039_] _1039__hier0_bF$buf2 d_lut_BUFX4
ABUFX4_25 [_1039_] _1039__hier0_bF$buf1 d_lut_BUFX4
ABUFX4_26 [_1039_] _1039__hier0_bF$buf0 d_lut_BUFX4
ABUFX4_27 [_1135__bF$buf1] _1135__bF$buf1_bF$buf3 d_lut_BUFX4
ABUFX4_28 [_1135__bF$buf1] _1135__bF$buf1_bF$buf2 d_lut_BUFX4
ABUFX4_29 [_1135__bF$buf1] _1135__bF$buf1_bF$buf1 d_lut_BUFX4
ABUFX4_30 [_1135__bF$buf1] _1135__bF$buf1_bF$buf0 d_lut_BUFX4
ABUFX4_31 [_1135__bF$buf2] _1135__bF$buf2_bF$buf3 d_lut_BUFX4
ABUFX4_32 [_1135__bF$buf2] _1135__bF$buf2_bF$buf2 d_lut_BUFX4
ABUFX4_33 [_1135__bF$buf2] _1135__bF$buf2_bF$buf1 d_lut_BUFX4
ABUFX4_34 [_1135__bF$buf2] _1135__bF$buf2_bF$buf0 d_lut_BUFX4
ABUFX4_35 [_1135__bF$buf3] _1135__bF$buf3_bF$buf3 d_lut_BUFX4
ABUFX4_36 [_1135__bF$buf3] _1135__bF$buf3_bF$buf2 d_lut_BUFX4
ABUFX4_37 [_1135__bF$buf3] _1135__bF$buf3_bF$buf1 d_lut_BUFX4
ABUFX4_38 [_1135__bF$buf3] _1135__bF$buf3_bF$buf0 d_lut_BUFX4
ABUFX4_39 [_1135__bF$buf4] _1135__bF$buf4_bF$buf3 d_lut_BUFX4
ABUFX4_40 [_1135__bF$buf4] _1135__bF$buf4_bF$buf2 d_lut_BUFX4
ABUFX4_41 [_1135__bF$buf4] _1135__bF$buf4_bF$buf1 d_lut_BUFX4
ABUFX4_42 [_1135__bF$buf4] _1135__bF$buf4_bF$buf0 d_lut_BUFX4
ABUFX4_43 [_1135__bF$buf5] _1135__bF$buf5_bF$buf3 d_lut_BUFX4
ABUFX4_44 [_1135__bF$buf5] _1135__bF$buf5_bF$buf2 d_lut_BUFX4
ABUFX4_45 [_1135__bF$buf5] _1135__bF$buf5_bF$buf1 d_lut_BUFX4
ABUFX4_46 [_1135__bF$buf5] _1135__bF$buf5_bF$buf0 d_lut_BUFX4
ABUFX4_47 [_1135__bF$buf6] _1135__bF$buf6_bF$buf3 d_lut_BUFX4
ABUFX4_48 [_1135__bF$buf6] _1135__bF$buf6_bF$buf2 d_lut_BUFX4
ABUFX4_49 [_1135__bF$buf6] _1135__bF$buf6_bF$buf1 d_lut_BUFX4
ABUFX4_50 [_1135__bF$buf6] _1135__bF$buf6_bF$buf0 d_lut_BUFX4
ABUFX4_51 [_1135__bF$buf7] _1135__bF$buf7_bF$buf3 d_lut_BUFX4
ABUFX4_52 [_1135__bF$buf7] _1135__bF$buf7_bF$buf2 d_lut_BUFX4
ABUFX4_53 [_1135__bF$buf7] _1135__bF$buf7_bF$buf1 d_lut_BUFX4
ABUFX4_54 [_1135__bF$buf7] _1135__bF$buf7_bF$buf0 d_lut_BUFX4
ABUFX4_55 [_1135__bF$buf8] _1135__bF$buf8_bF$buf3 d_lut_BUFX4
ABUFX4_56 [_1135__bF$buf8] _1135__bF$buf8_bF$buf2 d_lut_BUFX4
ABUFX4_57 [_1135__bF$buf8] _1135__bF$buf8_bF$buf1 d_lut_BUFX4
ABUFX4_58 [_1135__bF$buf8] _1135__bF$buf8_bF$buf0 d_lut_BUFX4
ABUFX4_59 [_1135__bF$buf9] _1135__bF$buf9_bF$buf3 d_lut_BUFX4
ABUFX4_60 [_1135__bF$buf9] _1135__bF$buf9_bF$buf2 d_lut_BUFX4
ABUFX4_61 [_1135__bF$buf9] _1135__bF$buf9_bF$buf1 d_lut_BUFX4
ABUFX4_62 [_1135__bF$buf9] _1135__bF$buf9_bF$buf0 d_lut_BUFX4
ABUFX4_63 [_1135__bF$buf10] _1135__bF$buf10_bF$buf3 d_lut_BUFX4
ABUFX4_64 [_1135__bF$buf10] _1135__bF$buf10_bF$buf2 d_lut_BUFX4
ABUFX4_65 [_1135__bF$buf10] _1135__bF$buf10_bF$buf1 d_lut_BUFX4
ABUFX4_66 [_1135__bF$buf10] _1135__bF$buf10_bF$buf0 d_lut_BUFX4
ABUFX4_67 [_1135__bF$buf11] _1135__bF$buf11_bF$buf3 d_lut_BUFX4
ABUFX4_68 [_1135__bF$buf11] _1135__bF$buf11_bF$buf2 d_lut_BUFX4
ABUFX4_69 [_1135__bF$buf11] _1135__bF$buf11_bF$buf1 d_lut_BUFX4
ABUFX4_70 [_1135__bF$buf11] _1135__bF$buf11_bF$buf0 d_lut_BUFX4
ABUFX4_71 [_1135__bF$buf12] _1135__bF$buf12_bF$buf3 d_lut_BUFX4
ABUFX4_72 [_1135__bF$buf12] _1135__bF$buf12_bF$buf2 d_lut_BUFX4
ABUFX4_73 [_1135__bF$buf12] _1135__bF$buf12_bF$buf1 d_lut_BUFX4
ABUFX4_74 [_1135__bF$buf12] _1135__bF$buf12_bF$buf0 d_lut_BUFX4
ABUFX4_75 [_1135__bF$buf13] _1135__bF$buf13_bF$buf3 d_lut_BUFX4
ABUFX4_76 [_1135__bF$buf13] _1135__bF$buf13_bF$buf2 d_lut_BUFX4
ABUFX4_77 [_1135__bF$buf13] _1135__bF$buf13_bF$buf1 d_lut_BUFX4
ABUFX4_78 [_1135__bF$buf13] _1135__bF$buf13_bF$buf0 d_lut_BUFX4
ABUFX4_79 [_1135__bF$buf14] _1135__bF$buf14_bF$buf3 d_lut_BUFX4
ABUFX4_80 [_1135__bF$buf14] _1135__bF$buf14_bF$buf2 d_lut_BUFX4
ABUFX4_81 [_1135__bF$buf14] _1135__bF$buf14_bF$buf1 d_lut_BUFX4
ABUFX4_82 [_1135__bF$buf14] _1135__bF$buf14_bF$buf0 d_lut_BUFX4
ABUFX4_83 [clock_i] clock_i_hier0_bF$buf9 d_lut_BUFX4
ABUFX4_84 [clock_i] clock_i_hier0_bF$buf8 d_lut_BUFX4
ABUFX4_85 [clock_i] clock_i_hier0_bF$buf7 d_lut_BUFX4
ABUFX4_86 [clock_i] clock_i_hier0_bF$buf6 d_lut_BUFX4
ABUFX4_87 [clock_i] clock_i_hier0_bF$buf5 d_lut_BUFX4
ABUFX4_88 [clock_i] clock_i_hier0_bF$buf4 d_lut_BUFX4
ABUFX4_89 [clock_i] clock_i_hier0_bF$buf3 d_lut_BUFX4
ABUFX4_90 [clock_i] clock_i_hier0_bF$buf2 d_lut_BUFX4
ABUFX4_91 [clock_i] clock_i_hier0_bF$buf1 d_lut_BUFX4
ABUFX4_92 [clock_i] clock_i_hier0_bF$buf0 d_lut_BUFX4
ABUFX4_93 [_1100__bF$buf10] _1100__bF$buf10_bF$buf3 d_lut_BUFX4
ABUFX4_94 [_1100__bF$buf10] _1100__bF$buf10_bF$buf2 d_lut_BUFX4
ABUFX4_95 [_1100__bF$buf10] _1100__bF$buf10_bF$buf1 d_lut_BUFX4
ABUFX4_96 [_1100__bF$buf10] _1100__bF$buf10_bF$buf0 d_lut_BUFX4
ABUFX4_97 [_1100__bF$buf11] _1100__bF$buf11_bF$buf3 d_lut_BUFX4
ABUFX4_98 [_1100__bF$buf11] _1100__bF$buf11_bF$buf2 d_lut_BUFX4
ABUFX4_99 [_1100__bF$buf11] _1100__bF$buf11_bF$buf1 d_lut_BUFX4
ABUFX4_100 [_1100__bF$buf11] _1100__bF$buf11_bF$buf0 d_lut_BUFX4
ABUFX4_101 [_1100__bF$buf12] _1100__bF$buf12_bF$buf3 d_lut_BUFX4
ABUFX4_102 [_1100__bF$buf12] _1100__bF$buf12_bF$buf2 d_lut_BUFX4
ABUFX4_103 [_1100__bF$buf12] _1100__bF$buf12_bF$buf1 d_lut_BUFX4
ABUFX4_104 [_1100__bF$buf12] _1100__bF$buf12_bF$buf0 d_lut_BUFX4
ABUFX4_105 [_1100__bF$buf13] _1100__bF$buf13_bF$buf3 d_lut_BUFX4
ABUFX4_106 [_1100__bF$buf13] _1100__bF$buf13_bF$buf2 d_lut_BUFX4
ABUFX4_107 [_1100__bF$buf13] _1100__bF$buf13_bF$buf1 d_lut_BUFX4
ABUFX4_108 [_1100__bF$buf13] _1100__bF$buf13_bF$buf0 d_lut_BUFX4
ABUFX4_109 [_1100__bF$buf14] _1100__bF$buf14_bF$buf3 d_lut_BUFX4
ABUFX4_110 [_1100__bF$buf14] _1100__bF$buf14_bF$buf2 d_lut_BUFX4
ABUFX4_111 [_1100__bF$buf14] _1100__bF$buf14_bF$buf1 d_lut_BUFX4
ABUFX4_112 [_1100__bF$buf14] _1100__bF$buf14_bF$buf0 d_lut_BUFX4
ABUFX4_113 [_1031_] _1031__hier0_bF$buf7 d_lut_BUFX4
ABUFX4_114 [_1031_] _1031__hier0_bF$buf6 d_lut_BUFX4
ABUFX4_115 [_1031_] _1031__hier0_bF$buf5 d_lut_BUFX4
ABUFX4_116 [_1031_] _1031__hier0_bF$buf4 d_lut_BUFX4
ABUFX4_117 [_1031_] _1031__hier0_bF$buf3 d_lut_BUFX4
ABUFX4_118 [_1031_] _1031__hier0_bF$buf2 d_lut_BUFX4
ABUFX4_119 [_1031_] _1031__hier0_bF$buf1 d_lut_BUFX4
ABUFX4_120 [_1031_] _1031__hier0_bF$buf0 d_lut_BUFX4
ABUFX4_121 [_1101__hier0_bF$buf6] _1101__bF$buf58 d_lut_BUFX4
ABUFX4_122 [_1101__hier0_bF$buf5] _1101__bF$buf57 d_lut_BUFX4
ABUFX4_123 [_1101__hier0_bF$buf4] _1101__bF$buf56 d_lut_BUFX4
ABUFX4_124 [_1101__hier0_bF$buf3] _1101__bF$buf55 d_lut_BUFX4
ABUFX4_125 [_1101__hier0_bF$buf2] _1101__bF$buf54 d_lut_BUFX4
ABUFX4_126 [_1101__hier0_bF$buf1] _1101__bF$buf53 d_lut_BUFX4
ABUFX4_127 [_1101__hier0_bF$buf0] _1101__bF$buf52 d_lut_BUFX4
ABUFX4_128 [_1101__hier0_bF$buf6] _1101__bF$buf51 d_lut_BUFX4
ABUFX4_129 [_1101__hier0_bF$buf5] _1101__bF$buf50 d_lut_BUFX4
ABUFX4_130 [_1101__hier0_bF$buf4] _1101__bF$buf49 d_lut_BUFX4
ABUFX4_131 [_1101__hier0_bF$buf3] _1101__bF$buf48 d_lut_BUFX4
ABUFX4_132 [_1101__hier0_bF$buf2] _1101__bF$buf47 d_lut_BUFX4
ABUFX4_133 [_1101__hier0_bF$buf1] _1101__bF$buf46 d_lut_BUFX4
ABUFX4_134 [_1101__hier0_bF$buf0] _1101__bF$buf45 d_lut_BUFX4
ABUFX4_135 [_1101__hier0_bF$buf6] _1101__bF$buf44 d_lut_BUFX4
ABUFX4_136 [_1101__hier0_bF$buf5] _1101__bF$buf43 d_lut_BUFX4
ABUFX4_137 [_1101__hier0_bF$buf4] _1101__bF$buf42 d_lut_BUFX4
ABUFX4_138 [_1101__hier0_bF$buf3] _1101__bF$buf41 d_lut_BUFX4
ABUFX4_139 [_1101__hier0_bF$buf2] _1101__bF$buf40 d_lut_BUFX4
ABUFX4_140 [_1101__hier0_bF$buf1] _1101__bF$buf39 d_lut_BUFX4
ABUFX4_141 [_1101__hier0_bF$buf0] _1101__bF$buf38 d_lut_BUFX4
ABUFX4_142 [_1101__hier0_bF$buf6] _1101__bF$buf37 d_lut_BUFX4
ABUFX4_143 [_1101__hier0_bF$buf5] _1101__bF$buf36 d_lut_BUFX4
ABUFX4_144 [_1101__hier0_bF$buf4] _1101__bF$buf35 d_lut_BUFX4
ABUFX4_145 [_1101__hier0_bF$buf3] _1101__bF$buf34 d_lut_BUFX4
ABUFX4_146 [_1101__hier0_bF$buf2] _1101__bF$buf33 d_lut_BUFX4