*SPEF "IEEE 1481.1999"
*DESIGN "BundleParser"
*DATE "01:53:26 Sunday September 24, 2023"
*VENDOR "unknown"
*PROGRAM "qrouter"
*VERSION "unknown"
*DESIGN_FLOW "qflow"
*DIVIDER /
*DELIMITER :
*BUS_DELIMITER <>
*T_UNIT 1 PS
*C_UNIT 1 FF
*R_UNIT 1 OHM
*L_UNIT 1 HENRY

*NAME_MAP
*1 _1100__bF_buf6
*2 BUFX4_254
*3 BUFX4_7
*4 OAI21X1_520
*5 OAI21X1_516
*6 OAI21X1_523
*7 OAI21X1_529
*8 OAI21X1_514
*9 OAI21X1_511
*10 OAI21X1_962
*11 OAI21X1_98
*12 OAI21X1_960
*13 OAI21X1_1658
*14 BUFX4_102
*15 OAI21X1_182
*16 OAI21X1_934
*17 OAI21X1_966
*18 OAI21X1_88
*19 _1100__bF_buf5
*20 BUFX4_255
*21 OAI21X1_122
*22 OAI21X1_1285
*23 BUFX4_106
*24 OAI21X1_1652
*25 OAI21X1_160
*26 OAI21X1_124
*27 BUFX4_97
*28 OAI21X1_1276
*29 OAI21X1_1273
*30 BUFX4_4
*31 OAI21X1_926
*32 OAI21X1_188
*33 OAI21X1_954
*34 OAI21X1_156
*35 OAI21X1_152
*36 OAI21X1_1278
*37 _1100__bF_buf4
*38 BUFX4_256
*39 OAI21X1_638
*40 BUFX4_107
*41 OAI21X1_1234
*42 OAI21X1_525
*43 OAI21X1_605
*44 OAI21X1_609
*45 OAI21X1_612
*46 BUFX4_2
*47 BUFX4_98
*48 OAI21X1_1682
*49 OAI21X1_1654
*50 OAI21X1_1688
*51 OAI21X1_924
*52 OAI21X1_932
*53 OAI21X1_1684
*54 BUFX4_100
*55 _1100__bF_buf3
*56 BUFX4_257
*57 OAI21X1_94
*58 OAI21X1_1680
*59 OAI21X1_178
*60 OAI21X1_158
*61 BUFX4_11
*62 OAI21X1_100
*63 OAI21X1_96
*64 OAI21X1_118
*65 OAI21X1_148
*66 OAI21X1_1662
*67 BUFX4_103
*68 OAI21X1_1686
*69 OAI21X1_1650
*70 OAI21X1_1692
*71 OAI21X1_126
*72 OAI21X1_930
*73 _1100__bF_buf2
*74 BUFX4_258
*75 OAI21X1_1353
*76 BUFX4_12
*77 OAI21X1_1355
*78 OAI21X1_128
*79 BUFX4_96
*80 BUFX4_105
*81 OAI21X1_1365
*82 OAI21X1_1358
*83 OAI21X1_1361
*84 OAI21X1_154
*85 OAI21X1_958
*86 OAI21X1_1656
*87 BUFX4_1
*88 BUFX4_111
*89 OAI21X1_1372
*90 OAI21X1_150
*91 _1100__bF_buf1
*92 BUFX4_259
*93 OAI21X1_1326
*94 OAI21X1_1283
*95 BUFX4_5
*96 OAI21X1_92
*97 OAI21X1_1328
*98 OAI21X1_1270
*99 OAI21X1_1310
*100 OAI21X1_1312
*101 OAI21X1_1320
*102 BUFX4_6
*103 OAI21X1_1370
*104 BUFX4_99
*105 OAI21X1_1316
*106 OAI21X1_1314
*107 OAI21X1_130
*108 OAI21X1_190
*109 _1100__bF_buf0
*110 BUFX4_260
*111 OAI21X1_566
*112 OAI21X1_568
*113 BUFX4_110
*114 OAI21X1_184
*115 BUFX4_10
*116 OAI21X1_1240
*117 OAI21X1_555
*118 OAI21X1_558
*119 OAI21X1_564
*120 OAI21X1_562
*121 OAI21X1_601
*122 OAI21X1_560
*123 OAI21X1_599
*124 OAI21X1_615
*125 OAI21X1_964
*126 BUFX4_108
*127 _1135__bF_buf0
*128 BUFX4_283
*129 OAI21X1_988
*130 BUFX4_44
*131 BUFX4_65
*132 BUFX4_77
*133 BUFX4_33
*134 BUFX4_61
*135 BUFX4_62
*136 BUFX4_63
*137 BUFX4_82
*138 BUFX4_57
*139 BUFX4_29
*140 BUFX4_76
*141 BUFX4_37
*142 OAI21X1_687
*143 BUFX4_30
*144 BUFX4_74
*145 _1134__bF_buf14
*146 BUFX4_289
*147 OAI21X1_796
*148 OAI21X1_813
*149 OAI21X1_239
*150 OAI21X1_782
*151 OAI21X1_830
*152 OAI21X1_241
*153 OAI21X1_1424
*154 OAI21X1_1415
*155 OAI21X1_1713
*156 OAI21X1_219
*157 OAI21X1_1417
*158 OAI21X1_275
*159 OAI21X1_826
*160 OAI21X1_715
*161 OAI21X1_235
*162 OAI21X1_809
*163 _1134__bF_buf13
*164 BUFX4_290
*165 OAI21X1_681
*166 OAI21X1_1412
*167 OAI21X1_805
*168 OAI21X1_799
*169 OAI21X1_231
*170 OAI21X1_1405
*171 OAI21X1_703
*172 OAI21X1_271
*173 OAI21X1_659
*174 OAI21X1_323
*175 OAI21X1_1389
*176 OAI21X1_1767
*177 OAI21X1_309
*178 OAI21X1_1401
*179 OAI21X1_1399
*180 OAI21X1_1743
*181 _1134__bF_buf12
*182 BUFX4_291
*183 OAI21X1_1438
*184 OAI21X1_1391
*185 OAI21X1_1765
*186 OAI21X1_201
*187 OAI21X1_1433
*188 OAI21X1_765
*189 OAI21X1_1435
*190 OAI21X1_1429
*191 OAI21X1_313
*192 OAI21X1_261
*193 OAI21X1_249
*194 OAI21X1_999
*195 OAI21X1_291
*196 OAI21X1_979
*197 OAI21X1_209
*198 OAI21X1_1029
*199 _1134__bF_buf11
*200 BUFX4_292
*201 OAI21X1_1473
*202 OAI21X1_251
*203 OAI21X1_1462
*204 OAI21X1_1759
*205 OAI21X1_1466
*206 OAI21X1_297
*207 OAI21X1_273
*208 OAI21X1_289
*209 OAI21X1_295
*210 OAI21X1_1725
*211 OAI21X1_1737
*212 OAI21X1_1457
*213 OAI21X1_1460
*214 OAI21X1_1755
*215 OAI21X1_253
*216 OAI21X1_223
*217 _1100_
*218 INVX8_5
*219 BUFX4_247
*220 BUFX4_249
*221 BUFX4_251
*222 BUFX4_250
*223 BUFX4_248
*224 BUFX4_255
*225 BUFX4_260
*226 BUFX4_253
*227 BUFX4_257
*228 BUFX4_259
*229 BUFX4_258
*230 BUFX4_246
*231 BUFX4_252
*232 BUFX4_254
*233 BUFX4_256
*234 _1135_
*235 INVX8_7
*236 BUFX4_269
*237 BUFX4_282
*238 BUFX4_274
*239 BUFX4_281
*240 BUFX4_283
*241 BUFX4_271
*242 BUFX4_275
*243 BUFX4_280
*244 BUFX4_276
*245 BUFX4_270
*246 BUFX4_277
*247 BUFX4_272
*248 BUFX4_278
*249 BUFX4_273
*250 BUFX4_279
*251 _1134_
*252 NAND2X1_714
*253 BUFX4_290
*254 BUFX4_289
*255 BUFX4_299
*256 BUFX4_300
*257 BUFX4_295
*258 BUFX4_298
*259 BUFX4_297
*260 BUFX4_294
*261 BUFX4_292
*262 BUFX4_301
*263 BUFX4_293
*264 BUFX4_303
*265 BUFX4_291
*266 BUFX4_302
*267 BUFX4_296
*268 _1134__bF_buf10
*269 BUFX4_293
*270 OAI21X1_981
*271 OAI21X1_299
*272 OAI21X1_1731
*273 OAI21X1_277
*274 OAI21X1_1727
*275 OAI21X1_985
*276 OAI21X1_255
*277 OAI21X1_225
*278 OAI21X1_975
*279 OAI21X1_229
*280 OAI21X1_301
*281 OAI21X1_1031
*282 OAI21X1_1757
*283 OAI21X1_1763
*284 OAI21X1_1715
*285 _1134__bF_buf9
*286 BUFX4_294
*287 OAI21X1_259
*288 OAI21X1_1470
*289 OAI21X1_237
*290 OAI21X1_1484
*291 OAI21X1_1496
*292 OAI21X1_1499
*293 OAI21X1_203
*294 OAI21X1_1015
*295 OAI21X1_1492
*296 OAI21X1_1546
*297 OAI21X1_1539
*298 OAI21X1_1488
*299 OAI21X1_1505
*300 OAI21X1_1535
*301 OAI21X1_983
*302 _1134__bF_buf8
*303 BUFX4_295
*304 OAI21X1_1761
*305 OAI21X1_315
*306 OAI21X1_233
*307 OAI21X1_745
*308 OAI21X1_824
*309 OAI21X1_738
*310 OAI21X1_821
*311 OAI21X1_733
*312 OAI21X1_729
*313 OAI21X1_743
*314 OAI21X1_1017
*315 OAI21X1_305
*316 OAI21X1_989
*317 OAI21X1_973
*318 OAI21X1_741
*319 _1134__bF_buf7
*320 BUFX4_296
*321 OAI21X1_243
*322 OAI21X1_1733
*323 OAI21X1_1007
*324 OAI21X1_263
*325 OAI21X1_991
*326 OAI21X1_993
*327 OAI21X1_1021
*328 OAI21X1_1023
*329 OAI21X1_267
*330 OAI21X1_1753
*331 OAI21X1_1019
*332 OAI21X1_1747
*333 OAI21X1_1387
*334 OAI21X1_1735
*335 OAI21X1_669
*336 _1134__bF_buf6
*337 BUFX4_297
*338 OAI21X1_1512
*339 OAI21X1_1560
*340 OAI21X1_1482
*341 OAI21X1_1524
*342 OAI21X1_1521
*343 OAI21X1_245
*344 OAI21X1_1574
*345 OAI21X1_1514
*346 OAI21X1_1509
*347 OAI21X1_1572
*348 OAI21X1_215
*349 OAI21X1_1769
*350 OAI21X1_977
*351 OAI21X1_1751
*352 OAI21X1_279
*353 _1134__bF_buf5
*354 BUFX4_298
*355 OAI21X1_1717
*356 INVX8_2
*357 OAI21X1_213
*358 OAI21X1_321
*359 OAI21X1_281
*360 OAI21X1_285
*361 OAI21X1_221
*362 OAI21X1_1447
*363 OAI21X1_1453
*364 OAI21X1_1501
*365 OAI21X1_319
*366 OAI21X1_1451
*367 OAI21X1_1580
*368 OAI21X1_1455
*369 OAI21X1_1442
*370 _1134__bF_buf4
*371 BUFX4_299
*372 OAI21X1_750
*373 OAI21X1_834
*374 OAI21X1_706
*375 OAI21X1_661
*376 OAI21X1_1771
*377 OAI21X1_317
*378 OAI21X1_683
*379 OAI21X1_685
*380 OAI21X1_700
*381 OAI21X1_697
*382 OAI21X1_774
*383 OAI21X1_778
*384 OAI21X1_786
*385 OAI21X1_1395
*386 OAI21X1_801
*387 _1134__bF_buf3
*388 BUFX4_300
*389 OAI21X1_724
*390 OAI21X1_720
*391 OAI21X1_815
*392 OAI21X1_789
*393 OAI21X1_769
*394 OAI21X1_759
*395 OAI21X1_763
*396 OAI21X1_1749
*397 OAI21X1_754
*398 OAI21X1_726
*399 OAI21X1_205
*400 OAI21X1_995
*401 OAI21X1_708
*402 OAI21X1_207
*403 OAI21X1_772
*404 _1134__bF_buf2
*405 BUFX4_301
*406 OAI21X1_1475
*407 OAI21X1_1533
*408 OAI21X1_1739
*409 OAI21X1_283
*410 OAI21X1_1479
*411 OAI21X1_1729
*412 OAI21X1_1741
*413 OAI21X1_1385
*414 OAI21X1_247
*415 OAI21X1_269
*416 OAI21X1_1033
*417 OAI21X1_1711
*418 OAI21X1_287
*419 OAI21X1_1745
*420 OAI21X1_307
*421 _1134__bF_buf1
*422 BUFX4_302
*423 OAI21X1_665
*424 OAI21X1_692
*425 OAI21X1_671
*426 OAI21X1_217
*427 OAI21X1_293
*428 OAI21X1_325
*429 OAI21X1_311
*430 OAI21X1_1719
*431 OAI21X1_1009
*432 OAI21X1_265
*433 OAI21X1_1723
*434 OAI21X1_1027
*435 OAI21X1_1773
*436 OAI21X1_227
*437 OAI21X1_675
*438 _1134__bF_buf0
*439 BUFX4_303
*440 OAI21X1_1011
*441 OAI21X1_1001
*442 OAI21X1_1013
*443 OAI21X1_987
*444 OAI21X1_257
*445 OAI21X1_211
*446 OAI21X1_1549
*447 OAI21X1_1721
*448 OAI21X1_327
*449 OAI21X1_997
*450 OAI21X1_1025
*451 OAI21X1_1005
*452 OAI21X1_1035
*453 OAI21X1_1003
*454 OAI21X1_303
*455 _3186_
*456 NAND2X1_598
*457 NOR2X1_190
*458 NOR2X1_192
*459 XNOR2X1_78
*460 NOR2X1_186
*461 OAI21X1_1269
*462 OAI21X1_1268
*463 OAI21X1_1265
*464 NOR2X1_197
*465 NOR3X1_17
*466 NOR3X1_18
*467 OAI21X1_1301
*468 OAI21X1_1264
*469 OAI21X1_1272
*470 _3550_
*471 NAND3X1_67
*472 NAND2X1_642
*473 OAI21X1_1558
*474 OR2X2_21
*475 NOR2X1_231
*476 NOR2X1_228
*477 OAI21X1_1541
*478 OAI21X1_1544
*479 XNOR2X1_103
*480 OAI21X1_1543
*481 OAI21X1_1537
*482 OAI21X1_1536
*483 OAI21X1_1547
*484 NOR2X1_229
*485 _3493_
*486 NAND2X1_635
*487 OAI21X1_1510
*488 XNOR2X1_100
*489 OAI21X1_1494
*490 OAI21X1_1493
*491 OAI21X1_1485
*492 OAI21X1_1490
*493 OAI21X1_1497
*494 OAI21X1_1489
*495 OAI21X1_1486
*496 INVX1_223
*497 OAI21X1_1507
*498 NAND2X1_636
*499 clock_i_hier0_bF_buf9
*500 BUFX4_83
*501 CLKBUF1_78
*502 CLKBUF1_61
*503 CLKBUF1_73
*504 CLKBUF1_45
*505 CLKBUF1_87
*506 CLKBUF1_4
*507 CLKBUF1_64
*508 CLKBUF1_22
*509 CLKBUF1_91
*510 CLKBUF1_80
*511 CLKBUF1_84
*512 clock_i_hier0_bF_buf8
*513 BUFX4_84
*514 CLKBUF1_24
*515 CLKBUF1_44
*516 CLKBUF1_79
*517 CLKBUF1_48
*518 CLKBUF1_92
*519 CLKBUF1_6
*520 CLKBUF1_9
*521 CLKBUF1_70
*522 CLKBUF1_65
*523 CLKBUF1_11
*524 CLKBUF1_29
*525 clock_i_bF_buf101
*526 CLKBUF1_1
*527 DFFPOSX1_109
*528 DFFPOSX1_575
*529 DFFPOSX1_588
*530 DFFPOSX1_412
*531 DFFPOSX1_173
*532 DFFPOSX1_951
*533 DFFPOSX1_578
*534 DFFPOSX1_456
*535 DFFPOSX1_439
*536 DFFPOSX1_375
*537 DFFPOSX1_567
*538 clock_i_bF_buf100
*539 CLKBUF1_2
*540 DFFPOSX1_288
*541 DFFPOSX1_110
*542 DFFPOSX1_270
*543 DFFPOSX1_703
*544 DFFPOSX1_268
*545 DFFPOSX1_712
*546 DFFPOSX1_204
*547 DFFPOSX1_31
*548 DFFPOSX1_216
*549 DFFPOSX1_286
*550 DFFPOSX1_140
*551 clock_i_bF_buf99
*552 CLKBUF1_3
*553 DFFPOSX1_1007
*554 DFFPOSX1_340
*555 DFFPOSX1_1017
*556 DFFPOSX1_272
*557 DFFPOSX1_189
*558 DFFPOSX1_190
*559 DFFPOSX1_208
*560 DFFPOSX1_126
*561 DFFPOSX1_254
*562 DFFPOSX1_125
*563 DFFPOSX1_92
*564 clock_i_bF_buf98
*565 CLKBUF1_4
*566 DFFPOSX1_359
*567 DFFPOSX1_338
*568 DFFPOSX1_210
*569 DFFPOSX1_300
*570 DFFPOSX1_347
*571 DFFPOSX1_648
*572 DFFPOSX1_1008
*573 DFFPOSX1_290
*574 DFFPOSX1_354
*575 DFFPOSX1_162
*576 DFFPOSX1_274
*577 clock_i_bF_buf97
*578 CLKBUF1_5
*579 DFFPOSX1_1001
*580 DFFPOSX1_459
*581 DFFPOSX1_395
*582 DFFPOSX1_606
*583 DFFPOSX1_1000
*584 DFFPOSX1_886
*585 DFFPOSX1_949
*586 DFFPOSX1_312
*587 DFFPOSX1_754
*588 DFFPOSX1_819
*589 DFFPOSX1_478
*590 clock_i_bF_buf96
*591 CLKBUF1_6
*592 DFFPOSX1_473
*593 DFFPOSX1_411
*594 DFFPOSX1_196
*595 DFFPOSX1_364
*596 DFFPOSX1_365
*597 DFFPOSX1_367
*598 DFFPOSX1_370
*599 DFFPOSX1_98
*600 DFFPOSX1_622
*601 DFFPOSX1_708
*602 DFFPOSX1_619
*603 clock_i_bF_buf95
*604 CLKBUF1_7
*605 DFFPOSX1_811
*606 DFFPOSX1_339
*607 DFFPOSX1_872
*608 DFFPOSX1_835
*609 DFFPOSX1_328
*610 DFFPOSX1_336
*611 DFFPOSX1_144
*612 DFFPOSX1_318
*613 DFFPOSX1_148
*614 DFFPOSX1_773
*615 DFFPOSX1_39
*616 clock_i_bF_buf94
*617 CLKBUF1_8
*618 DFFPOSX1_143
*619 DFFPOSX1_1018
*620 DFFPOSX1_266
*621 DFFPOSX1_1014
*622 DFFPOSX1_70
*623 DFFPOSX1_46
*624 DFFPOSX1_78
*625 DFFPOSX1_1012
*626 DFFPOSX1_62
*627 DFFPOSX1_341
*628 DFFPOSX1_1004
*629 clock_i_bF_buf93
*630 CLKBUF1_9
*631 DFFPOSX1_582
*632 DFFPOSX1_584
*633 DFFPOSX1_457
*634 DFFPOSX1_480
*635 DFFPOSX1_587
*636 DFFPOSX1_580
*637 DFFPOSX1_520
*638 DFFPOSX1_611
*639 DFFPOSX1_476
*640 DFFPOSX1_477
*641 DFFPOSX1_540
*642 clock_i_bF_buf92
*643 CLKBUF1_10
*644 DFFPOSX1_177
*645 DFFPOSX1_420
*646 DFFPOSX1_631
*647 DFFPOSX1_426
*648 DFFPOSX1_637
*649 DFFPOSX1_644
*650 DFFPOSX1_612
*651 DFFPOSX1_625
*652 DFFPOSX1_172
*653 DFFPOSX1_671
*654 DFFPOSX1_241
*655 clock_i_bF_buf91
*656 CLKBUF1_11
*657 DFFPOSX1_414
*658 DFFPOSX1_20
*659 DFFPOSX1_884
*660 DFFPOSX1_820
*661 DFFPOSX1_883
*662 DFFPOSX1_262
*663 DFFPOSX1_134
*664 DFFPOSX1_145
*665 DFFPOSX1_1020
*666 DFFPOSX1_415
*667 DFFPOSX1_543
*668 clock_i_bF_buf90
*669 CLKBUF1_12
*670 DFFPOSX1_813
*671 DFFPOSX1_880
*672 DFFPOSX1_875
*673 DFFPOSX1_243
*674 DFFPOSX1_752
*675 DFFPOSX1_119
*676 DFFPOSX1_751
*677 DFFPOSX1_814
*678 DFFPOSX1_179
*679 DFFPOSX1_746
*680 DFFPOSX1_753
*681 _1694_
*682 NAND2X1_171
*683 NOR2X1_12
*684 OAI21X1_428
*685 OR2X2_2
*686 NOR2X1_67
*687 OAI21X1_553
*688 OAI21X1_709
*689 OAI21X1_712
*690 OR2X2_5
*691 NOR2X1_27
*692 OR2X2_3
*693 OAI21X1_550
*694 clock_i
*695 BUFX4_83
*696 BUFX4_85
*697 BUFX4_90
*698 BUFX4_84
*699 BUFX4_91
*700 BUFX4_86
*701 BUFX4_88
*702 BUFX4_92
*703 BUFX4_87
*704 BUFX4_89
*705 clock_i_hier0_bF_buf7
*706 BUFX4_85
*707 CLKBUF1_31
*708 CLKBUF1_96
*709 CLKBUF1_39
*710 CLKBUF1_101
*711 CLKBUF1_98
*712 CLKBUF1_100
*713 CLKBUF1_12
*714 CLKBUF1_72
*715 CLKBUF1_5
*716 CLKBUF1_74
*717 clock_i_hier0_bF_buf6
*718 BUFX4_86
*719 CLKBUF1_83
*720 CLKBUF1_35
*721 CLKBUF1_55
*722 CLKBUF1_47
*723 CLKBUF1_43
*724 CLKBUF1_93
*725 CLKBUF1_7
*726 CLKBUF1_16
*727 CLKBUF1_3
*728 CLKBUF1_60
*729 clock_i_hier0_bF_buf5
*730 BUFX4_87
*731 CLKBUF1_97
*732 CLKBUF1_30
*733 CLKBUF1_42
*734 CLKBUF1_8
*735 CLKBUF1_17
*736 CLKBUF1_25
*737 CLKBUF1_26
*738 CLKBUF1_67
*739 CLKBUF1_99
*740 CLKBUF1_32
*741 clock_i_hier0_bF_buf4
*742 BUFX4_88
*743 CLKBUF1_77
*744 CLKBUF1_85
*745 CLKBUF1_28
*746 CLKBUF1_62
*747 CLKBUF1_51
*748 CLKBUF1_15
*749 CLKBUF1_52
*750 CLKBUF1_2
*751 CLKBUF1_34
*752 CLKBUF1_53
*753 clock_i_hier0_bF_buf3
*754 BUFX4_89
*755 CLKBUF1_81
*756 CLKBUF1_71
*757 CLKBUF1_76
*758 CLKBUF1_58
*759 CLKBUF1_82
*760 CLKBUF1_20
*761 CLKBUF1_69
*762 CLKBUF1_38
*763 CLKBUF1_37
*764 CLKBUF1_40
*765 clock_i_hier0_bF_buf2
*766 BUFX4_90
*767 CLKBUF1_90
*768 CLKBUF1_94
*769 CLKBUF1_66
*770 CLKBUF1_10
*771 CLKBUF1_75
*772 CLKBUF1_13
*773 CLKBUF1_46
*774 CLKBUF1_41
*775 CLKBUF1_56
*776 CLKBUF1_54
*777 clock_i_hier0_bF_buf1
*778 BUFX4_91
*779 CLKBUF1_1
*780 CLKBUF1_19
*781 CLKBUF1_50
*782 CLKBUF1_23
*783 CLKBUF1_88
*784 CLKBUF1_63
*785 CLKBUF1_18
*786 CLKBUF1_33
*787 CLKBUF1_102
*788 CLKBUF1_59
*789 clock_i_hier0_bF_buf0
*790 BUFX4_92
*791 CLKBUF1_49
*792 CLKBUF1_68
*793 CLKBUF1_57
*794 CLKBUF1_14
*795 CLKBUF1_95
*796 CLKBUF1_86
*797 CLKBUF1_21
*798 CLKBUF1_89
*799 CLKBUF1_27
*800 CLKBUF1_36
*801 _1031__hier0_bF_buf7
*802 BUFX4_113
*803 BUFX4_371
*804 BUFX4_324
*805 BUFX4_354
*806 BUFX4_326
*807 BUFX4_314
*808 BUFX4_333
*809 BUFX4_317
*810 BUFX4_311
*811 BUFX4_334
*812 BUFX4_378
*813 _1031__hier0_bF_buf6
*814 BUFX4_114
*815 BUFX4_345
*816 BUFX4_387
*817 BUFX4_388
*818 BUFX4_355
*819 BUFX4_320
*820 BUFX4_315
*821 BUFX4_327
*822 BUFX4_372
*823 BUFX4_358
*824 BUFX4_365
*825 _1031__hier0_bF_buf5
*826 BUFX4_115
*827 BUFX4_347
*828 BUFX4_323
*829 BUFX4_362
*830 BUFX4_321
*831 BUFX4_367
*832 BUFX4_376
*833 BUFX4_366
*834 BUFX4_352
*835 BUFX4_368
*836 BUFX4_329
*837 _1031__hier0_bF_buf4
*838 BUFX4_116
*839 BUFX4_325
*840 BUFX4_346
*841 BUFX4_373
*842 BUFX4_335
*843 BUFX4_328
*844 BUFX4_382
*845 BUFX4_353
*846 BUFX4_312
*847 BUFX4_386
*848 BUFX4_316
*849 _1031__hier0_bF_buf3
*850 BUFX4_117
*851 BUFX4_318
*852 BUFX4_344
*853 BUFX4_342
*854 BUFX4_330
*855 BUFX4_357
*856 BUFX4_360
*857 BUFX4_348
*858 BUFX4_375
*859 BUFX4_381
*860 BUFX4_339
*861 _1031__hier0_bF_buf2
*862 BUFX4_118
*863 BUFX4_377
*864 BUFX4_361
*865 BUFX4_336
*866 BUFX4_363
*867 BUFX4_380
*868 BUFX4_322
*869 BUFX4_341
*870 BUFX4_313
*871 BUFX4_349
*872 BUFX4_332
*873 clock_i_bF_buf89
*874 CLKBUF1_13
*875 DFFPOSX1_371
*876 DFFPOSX1_556
*877 DFFPOSX1_428
*878 DFFPOSX1_430
*879 DFFPOSX1_675
*880 DFFPOSX1_435
*881 DFFPOSX1_429
*882 DFFPOSX1_432
*883 DFFPOSX1_434
*884 DFFPOSX1_433
*885 clock_i_bF_buf88
*886 CLKBUF1_14
*887 DFFPOSX1_303
*888 DFFPOSX1_276
*889 DFFPOSX1_774
*890 DFFPOSX1_175
*891 DFFPOSX1_111
*892 DFFPOSX1_212
*893 DFFPOSX1_832
*894 DFFPOSX1_217
*895 DFFPOSX1_634
*896 DFFPOSX1_239
*897 clock_i_bF_buf87
*898 CLKBUF1_15
*899 DFFPOSX1_387
*900 DFFPOSX1_280
*901 DFFPOSX1_344
*902 DFFPOSX1_444
*903 DFFPOSX1_720
*904 DFFPOSX1_380
*905 DFFPOSX1_384
*906 DFFPOSX1_222
*907 DFFPOSX1_120
*908 DFFPOSX1_152
*909 clock_i_bF_buf86
*910 CLKBUF1_16
*911 DFFPOSX1_136
*912 DFFPOSX1_200
*913 DFFPOSX1_147
*914 DFFPOSX1_90
*915 DFFPOSX1_26
*916 DFFPOSX1_1031
*917 DFFPOSX1_58
*918 DFFPOSX1_275
*919 DFFPOSX1_833
*920 DFFPOSX1_954
*921 clock_i_bF_buf85
*922 CLKBUF1_17
*923 DFFPOSX1_112
*924 DFFPOSX1_744
*925 DFFPOSX1_808
*926 DFFPOSX1_330
*927 DFFPOSX1_718
*928 DFFPOSX1_76
*929 DFFPOSX1_319
*930 DFFPOSX1_741
*931 DFFPOSX1_191
*932 DFFPOSX1_713
*933 clock_i_bF_buf84
*934 CLKBUF1_18
*935 DFFPOSX1_436
*936 DFFPOSX1_441
*937 DFFPOSX1_440
*938 DFFPOSX1_505
*939 DFFPOSX1_442
*940 DFFPOSX1_379
*941 DFFPOSX1_378
*942 DFFPOSX1_184
*943 DFFPOSX1_377
*944 DFFPOSX1_443
*945 clock_i_bF_buf83
*946 CLKBUF1_19
*947 DFFPOSX1_605
*948 DFFPOSX1_482
*949 DFFPOSX1_394
*950 DFFPOSX1_374
*951 DFFPOSX1_392
*952 DFFPOSX1_607
*953 DFFPOSX1_583
*954 DFFPOSX1_481
*955 DFFPOSX1_416
*956 DFFPOSX1_87
*957 clock_i_bF_buf82
*958 CLKBUF1_20
*959 DFFPOSX1_993
*960 DFFPOSX1_992
*961 DFFPOSX1_864
*962 DFFPOSX1_991
*963 DFFPOSX1_805
*964 DFFPOSX1_862
*965 DFFPOSX1_799
*966 DFFPOSX1_865
*967 DFFPOSX1_990
*968 DFFPOSX1_863
*969 clock_i_bF_buf81
*970 CLKBUF1_21
*971 DFFPOSX1_856
*972 DFFPOSX1_788
*973 DFFPOSX1_855
*974 DFFPOSX1_903
*975 DFFPOSX1_333
*976 DFFPOSX1_967
*977 DFFPOSX1_149
*978 DFFPOSX1_919
*979 DFFPOSX1_716
*980 DFFPOSX1_920
*981 clock_i_bF_buf80
*982 CLKBUF1_22
*983 DFFPOSX1_64
*984 DFFPOSX1_353
*985 DFFPOSX1_548
*986 DFFPOSX1_327
*987 DFFPOSX1_551
*988 DFFPOSX1_403
*989 DFFPOSX1_469
*990 DFFPOSX1_313
*991 DFFPOSX1_79
*992 DFFPOSX1_463
*993 clock_i_bF_buf79
*994 CLKBUF1_23
*995 DFFPOSX1_247
*996 DFFPOSX1_292
*997 DFFPOSX1_888
*998 DFFPOSX1_825
*999 DFFPOSX1_824
*1000 DFFPOSX1_952
*1001 DFFPOSX1_585
*1002 DFFPOSX1_760
*1003 DFFPOSX1_953
*1004 DFFPOSX1_890
*1005 clock_i_bF_buf78
*1006 CLKBUF1_24
*1007 DFFPOSX1_570
*1008 DFFPOSX1_601
*1009 DFFPOSX1_393
*1010 DFFPOSX1_437
*1011 DFFPOSX1_417
*1012 DFFPOSX1_581
*1013 DFFPOSX1_608
*1014 DFFPOSX1_569
*1015 DFFPOSX1_438
*1016 DFFPOSX1_593
*1017 clock_i_bF_buf77
*1018 CLKBUF1_25
*1019 DFFPOSX1_50
*1020 DFFPOSX1_242
*1021 DFFPOSX1_326
*1022 DFFPOSX1_114
*1023 DFFPOSX1_342
*1024 DFFPOSX1_700
*1025 DFFPOSX1_68
*1026 DFFPOSX1_306
*1027 DFFPOSX1_304
*1028 DFFPOSX1_240
*1029 clock_i_bF_buf76
*1030 CLKBUF1_26
*1031 DFFPOSX1_331
*1032 DFFPOSX1_215
*1033 DFFPOSX1_170
*1034 DFFPOSX1_151
*1035 DFFPOSX1_171
*1036 DFFPOSX1_235
*1037 DFFPOSX1_107
*1038 DFFPOSX1_97
*1039 DFFPOSX1_299
*1040 DFFPOSX1_714
*1041 clock_i_bF_buf75
*1042 CLKBUF1_27
*1043 DFFPOSX1_966
*1044 DFFPOSX1_838
*1045 DFFPOSX1_85
*1046 DFFPOSX1_335
*1047 DFFPOSX1_837
*1048 DFFPOSX1_246
*1049 DFFPOSX1_229
*1050 DFFPOSX1_902
*1051 DFFPOSX1_317
*1052 DFFPOSX1_964
*1053 clock_i_bF_buf74
*1054 CLKBUF1_28
*1055 DFFPOSX1_910
*1056 DFFPOSX1_846
*1057 DFFPOSX1_845
*1058 DFFPOSX1_974
*1059 DFFPOSX1_913
*1060 DFFPOSX1_780
*1061 DFFPOSX1_989
*1062 DFFPOSX1_842
*1063 DFFPOSX1_987
*1064 DFFPOSX1_930
*1065 clock_i_bF_buf73
*1066 CLKBUF1_29
*1067 DFFPOSX1_547
*1068 DFFPOSX1_301
*1069 DFFPOSX1_479
*1070 DFFPOSX1_458
*1071 DFFPOSX1_610
*1072 DFFPOSX1_609
*1073 DFFPOSX1_544
*1074 DFFPOSX1_948
*1075 DFFPOSX1_818
*1076 DFFPOSX1_413
*1077 clock_i_bF_buf72
*1078 CLKBUF1_30
*1079 DFFPOSX1_790
*1080 DFFPOSX1_998
*1081 DFFPOSX1_806
*1082 DFFPOSX1_182
*1083 DFFPOSX1_791
*1084 DFFPOSX1_807
*1085 DFFPOSX1_981
*1086 DFFPOSX1_983
*1087 DFFPOSX1_934
*1088 DFFPOSX1_984
*1089 clock_i_bF_buf71
*1090 CLKBUF1_31
*1091 DFFPOSX1_748
*1092 DFFPOSX1_944
*1093 DFFPOSX1_749
*1094 DFFPOSX1_941
*1095 DFFPOSX1_750
*1096 DFFPOSX1_877
*1097 DFFPOSX1_879
*1098 DFFPOSX1_52
*1099 DFFPOSX1_878
*1100 DFFPOSX1_701
*1101 clock_i_bF_buf70
*1102 CLKBUF1_32
*1103 DFFPOSX1_59
*1104 DFFPOSX1_91
*1105 DFFPOSX1_1027
*1106 DFFPOSX1_127
*1107 DFFPOSX1_27
*1108 DFFPOSX1_255
*1109 DFFPOSX1_691
*1110 DFFPOSX1_654
*1111 DFFPOSX1_661
*1112 DFFPOSX1_651
*1113 clock_i_bF_buf69
*1114 CLKBUF1_33
*1115 DFFPOSX1_383
*1116 DFFPOSX1_447
*1117 DFFPOSX1_507
*1118 DFFPOSX1_446
*1119 DFFPOSX1_449
*1120 DFFPOSX1_158
*1121 DFFPOSX1_376
*1122 DFFPOSX1_508
*1123 DFFPOSX1_522
*1124 DFFPOSX1_448
*1125 clock_i_bF_buf68
*1126 CLKBUF1_34
*1127 DFFPOSX1_957
*1128 DFFPOSX1_895
*1129 DFFPOSX1_959
*1130 DFFPOSX1_958
*1131 DFFPOSX1_975
*1132 DFFPOSX1_829
*1133 DFFPOSX1_826
*1134 DFFPOSX1_892
*1135 DFFPOSX1_828
*1136 DFFPOSX1_831
*1137 clock_i_bF_buf67
*1138 CLKBUF1_35
*1139 DFFPOSX1_71
*1140 DFFPOSX1_770
*1141 DFFPOSX1_960
*1142 DFFPOSX1_238
*1143 DFFPOSX1_901
*1144 DFFPOSX1_253
*1145 DFFPOSX1_264
*1146 DFFPOSX1_1002
*1147 DFFPOSX1_897
*1148 DFFPOSX1_891
*1149 clock_i_bF_buf66
*1150 CLKBUF1_36
*1151 DFFPOSX1_854
*1152 DFFPOSX1_994
*1153 DFFPOSX1_921
*1154 DFFPOSX1_866
*1155 DFFPOSX1_997
*1156 DFFPOSX1_786
*1157 DFFPOSX1_925
*1158 DFFPOSX1_857
*1159 DFFPOSX1_979
*1160 DFFPOSX1_929
*1161 clock_i_bF_buf65
*1162 CLKBUF1_37
*1163 DFFPOSX1_269
*1164 DFFPOSX1_686
*1165 DFFPOSX1_699
*1166 DFFPOSX1_684
*1167 DFFPOSX1_705
*1168 DFFPOSX1_738
*1169 DFFPOSX1_928
*1170 DFFPOSX1_798
*1171 DFFPOSX1_169
*1172 DFFPOSX1_233
*1173 clock_i_bF_buf64
*1174 CLKBUF1_38
*1175 DFFPOSX1_163
*1176 DFFPOSX1_279
*1177 DFFPOSX1_797
*1178 DFFPOSX1_33
*1179 DFFPOSX1_205
*1180 DFFPOSX1_728
*1181 DFFPOSX1_1
*1182 DFFPOSX1_743
*1183 DFFPOSX1_727
*1184 DFFPOSX1_923
*1185 clock_i_bF_buf63
*1186 CLKBUF1_39
*1187 DFFPOSX1_115
*1188 DFFPOSX1_261
*1189 DFFPOSX1_662
*1190 DFFPOSX1_133
*1191 DFFPOSX1_690
*1192 DFFPOSX1_282
*1193 DFFPOSX1_121
*1194 DFFPOSX1_137
*1195 DFFPOSX1_656
*1196 DFFPOSX1_683
*1197 clock_i_bF_buf62
*1198 CLKBUF1_40
*1199 DFFPOSX1_931
*1200 DFFPOSX1_277
*1201 DFFPOSX1_996
*1202 DFFPOSX1_687
*1203 DFFPOSX1_267
*1204 DFFPOSX1_88
*1205 DFFPOSX1_203
*1206 DFFPOSX1_695
*1207 DFFPOSX1_696
*1208 DFFPOSX1_702
*1209 clock_i_bF_buf61
*1210 CLKBUF1_41
*1211 DFFPOSX1_360
*1212 DFFPOSX1_146
*1213 DFFPOSX1_1010
*1214 DFFPOSX1_42
*1215 DFFPOSX1_10
*1216 DFFPOSX1_226
*1217 DFFPOSX1_652
*1218 DFFPOSX1_35
*1219 DFFPOSX1_553
*1220 DFFPOSX1_167
*1221 clock_i_bF_buf60
*1222 CLKBUF1_42
*1223 DFFPOSX1_187
*1224 DFFPOSX1_44
*1225 DFFPOSX1_1024
*1226 DFFPOSX1_207
*1227 DFFPOSX1_45
*1228 DFFPOSX1_186
*1229 DFFPOSX1_681
*1230 DFFPOSX1_14
*1231 DFFPOSX1_660
*1232 DFFPOSX1_12
*1233 clock_i_bF_buf59
*1234 CLKBUF1_43
*1235 DFFPOSX1_939
*1236 DFFPOSX1_180
*1237 DFFPOSX1_725
*1238 DFFPOSX1_316
*1239 DFFPOSX1_285
*1240 DFFPOSX1_157
*1241 DFFPOSX1_1026
*1242 DFFPOSX1_252
*1243 DFFPOSX1_284
*1244 DFFPOSX1_348
*1245 clock_i_bF_buf58
*1246 CLKBUF1_44
*1247 DFFPOSX1_523
*1248 DFFPOSX1_524
*1249 DFFPOSX1_419
*1250 DFFPOSX1_389
*1251 DFFPOSX1_390
*1252 DFFPOSX1_454
*1253 DFFPOSX1_453
*1254 DFFPOSX1_571
*1255 DFFPOSX1_455
*1256 DFFPOSX1_506
*1257 clock_i_bF_buf57
*1258 CLKBUF1_45
*1259 DFFPOSX1_80
*1260 DFFPOSX1_356
*1261 DFFPOSX1_422
*1262 DFFPOSX1_357
*1263 DFFPOSX1_1023
*1264 DFFPOSX1_55
*1265 DFFPOSX1_484
*1266 DFFPOSX1_559
*1267 DFFPOSX1_486
*1268 DFFPOSX1_231
*1269 clock_i_bF_buf56
*1270 CLKBUF1_46
*1271 DFFPOSX1_490
*1272 DFFPOSX1_562
*1273 DFFPOSX1_492
*1274 DFFPOSX1_561
*1275 DFFPOSX1_497
*1276 DFFPOSX1_558
*1277 DFFPOSX1_557
*1278 DFFPOSX1_496
*1279 DFFPOSX1_369
*1280 DFFPOSX1_500
*1281 clock_i_bF_buf55
*1282 CLKBUF1_47
*1283 DFFPOSX1_244
*1284 DFFPOSX1_29
*1285 DFFPOSX1_61
*1286 DFFPOSX1_60
*1287 DFFPOSX1_100
*1288 DFFPOSX1_116
*1289 DFFPOSX1_515
*1290 DFFPOSX1_221
*1291 DFFPOSX1_63
*1292 DFFPOSX1_349
*1293 clock_i_bF_buf54
*1294 CLKBUF1_48
*1295 DFFPOSX1_518
*1296 DFFPOSX1_517
*1297 DFFPOSX1_549
*1298 DFFPOSX1_472
*1299 DFFPOSX1_467
*1300 DFFPOSX1_464
*1301 DFFPOSX1_475
*1302 DFFPOSX1_373
*1303 DFFPOSX1_466
*1304 DFFPOSX1_474
*1305 clock_i_bF_buf53
*1306 CLKBUF1_49
*1307 DFFPOSX1_899
*1308 DFFPOSX1_321
*1309 DFFPOSX1_965
*1310 DFFPOSX1_915
*1311 DFFPOSX1_778
*1312 DFFPOSX1_17
*1313 DFFPOSX1_106
*1314 DFFPOSX1_963
*1315 DFFPOSX1_787
*1316 DFFPOSX1_905
*1317 clock_i_bF_buf52
*1318 CLKBUF1_50
*1319 DFFPOSX1_604
*1320 DFFPOSX1_450
*1321 DFFPOSX1_93
*1322 DFFPOSX1_445
*1323 DFFPOSX1_836
*1324 DFFPOSX1_381
*1325 DFFPOSX1_510
*1326 DFFPOSX1_382
*1327 DFFPOSX1_308
*1328 DFFPOSX1_885
*1329 clock_i_bF_buf51
*1330 CLKBUF1_51
*1331 DFFPOSX1_287
*1332 DFFPOSX1_7
*1333 DFFPOSX1_206
*1334 DFFPOSX1_223
*1335 DFFPOSX1_667
*1336 DFFPOSX1_678
*1337 DFFPOSX1_174
*1338 DFFPOSX1_766
*1339 DFFPOSX1_159
*1340 DFFPOSX1_1028
*1341 clock_i_bF_buf50
*1342 CLKBUF1_52
*1343 DFFPOSX1_28
*1344 DFFPOSX1_767
*1345 DFFPOSX1_830
*1346 DFFPOSX1_697
*1347 DFFPOSX1_658
*1348 DFFPOSX1_160
*1349 DFFPOSX1_1029
*1350 DFFPOSX1_224
*1351 DFFPOSX1_827
*1352 DFFPOSX1_689
*1353 clock_i_bF_buf49
*1354 CLKBUF1_53
*1355 DFFPOSX1_783
*1356 DFFPOSX1_782
*1357 DFFPOSX1_142
*1358 DFFPOSX1_676
*1359 DFFPOSX1_784
*1360 DFFPOSX1_912
*1361 DFFPOSX1_907
*1362 DFFPOSX1_847
*1363 DFFPOSX1_848
*1364 DFFPOSX1_785
*1365 clock_i_bF_buf48
*1366 CLKBUF1_54
*1367 DFFPOSX1_707
*1368 DFFPOSX1_706
*1369 DFFPOSX1_693
*1370 DFFPOSX1_646
*1371 DFFPOSX1_659
*1372 DFFPOSX1_674
*1373 DFFPOSX1_647
*1374 DFFPOSX1_626
*1375 DFFPOSX1_620
*1376 DFFPOSX1_657
*1377 clock_i_bF_buf47
*1378 CLKBUF1_55
*1379 DFFPOSX1_762
*1380 DFFPOSX1_289
*1381 DFFPOSX1_962
*1382 DFFPOSX1_834
*1383 DFFPOSX1_898
*1384 DFFPOSX1_961
*1385 DFFPOSX1_81
*1386 DFFPOSX1_900
*1387 DFFPOSX1_772
*1388 DFFPOSX1_771
*1389 clock_i_bF_buf46
*1390 CLKBUF1_56
*1391 DFFPOSX1_113
*1392 DFFPOSX1_324
*1393 DFFPOSX1_108
*1394 DFFPOSX1_260
*1395 DFFPOSX1_739
*1396 DFFPOSX1_236
*1397 DFFPOSX1_730
*1398 DFFPOSX1_682
*1399 DFFPOSX1_74
*1400 DFFPOSX1_709
*1401 clock_i_bF_buf45
*1402 CLKBUF1_57
*1403 DFFPOSX1_13
*1404 DFFPOSX1_1013
*1405 DFFPOSX1_178
*1406 DFFPOSX1_19
*1407 DFFPOSX1_1019
*1408 DFFPOSX1_742
*1409 DFFPOSX1_214
*1410 DFFPOSX1_936
*1411 DFFPOSX1_271
*1412 DFFPOSX1_198
*1413 clock_i_bF_buf44
*1414 CLKBUF1_58
*1415 DFFPOSX1_73
*1416 DFFPOSX1_41
*1417 DFFPOSX1_1009
*1418 DFFPOSX1_685
*1419 DFFPOSX1_724
*1420 DFFPOSX1_623
*1421 DFFPOSX1_666
*1422 DFFPOSX1_9
*1423 DFFPOSX1_355
*1424 DFFPOSX1_227
*1425 clock_i_bF_buf43
*1426 CLKBUF1_59
*1427 DFFPOSX1_823
*1428 DFFPOSX1_758
*1429 DFFPOSX1_759
*1430 DFFPOSX1_164
*1431 DFFPOSX1_740
*1432 DFFPOSX1_117
*1433 DFFPOSX1_296
*1434 DFFPOSX1_104
*1435 DFFPOSX1_278
*1436 DFFPOSX1_889
*1437 clock_i_bF_buf42
*1438 CLKBUF1_60
*1439 DFFPOSX1_509
*1440 DFFPOSX1_955
*1441 DFFPOSX1_763
*1442 DFFPOSX1_298
*1443 DFFPOSX1_573
*1444 DFFPOSX1_603
*1445 DFFPOSX1_579
*1446 DFFPOSX1_769
*1447 DFFPOSX1_161
*1448 DFFPOSX1_896
*1449 clock_i_bF_buf41
*1450 CLKBUF1_61
*1451 DFFPOSX1_722
*1452 DFFPOSX1_57
*1453 DFFPOSX1_736
*1454 DFFPOSX1_633
*1455 DFFPOSX1_624
*1456 DFFPOSX1_630
*1457 DFFPOSX1_688
*1458 DFFPOSX1_632
*1459 DFFPOSX1_15
*1460 DFFPOSX1_692
*1461 clock_i_bF_buf40
*1462 CLKBUF1_62
*1463 DFFPOSX1_717
*1464 DFFPOSX1_165
*1465 DFFPOSX1_844
*1466 DFFPOSX1_129
*1467 DFFPOSX1_849
*1468 DFFPOSX1_779
*1469 DFFPOSX1_843
*1470 DFFPOSX1_908
*1471 DFFPOSX1_911
*1472 DFFPOSX1_257
*1473 clock_i_bF_buf39
*1474 CLKBUF1_63
*1475 DFFPOSX1_514
*1476 DFFPOSX1_513
*1477 DFFPOSX1_574
*1478 DFFPOSX1_572
*1479 DFFPOSX1_502
*1480 DFFPOSX1_511
*1481 DFFPOSX1_386
*1482 DFFPOSX1_385
*1483 DFFPOSX1_451
*1484 DFFPOSX1_577
*1485 clock_i_bF_buf38
*1486 CLKBUF1_64
*1487 DFFPOSX1_96
*1488 DFFPOSX1_185
*1489 DFFPOSX1_89
*1490 DFFPOSX1_47
*1491 DFFPOSX1_323
*1492 DFFPOSX1_25
*1493 DFFPOSX1_649
*1494 DFFPOSX1_737
*1495 DFFPOSX1_1025
*1496 DFFPOSX1_1015
*1497 clock_i_bF_buf37
*1498 CLKBUF1_65
*1499 DFFPOSX1_483
*1500 DFFPOSX1_37
*1501 DFFPOSX1_1005
*1502 DFFPOSX1_756
*1503 DFFPOSX1_755
*1504 DFFPOSX1_237
*1505 DFFPOSX1_309
*1506 DFFPOSX1_5
*1507 DFFPOSX1_821
*1508 DFFPOSX1_887
*1509 clock_i_bF_buf36
*1510 CLKBUF1_66
*1511 DFFPOSX1_67
*1512 DFFPOSX1_488
*1513 DFFPOSX1_361
*1514 DFFPOSX1_363
*1515 DFFPOSX1_305
*1516 DFFPOSX1_362
*1517 DFFPOSX1_132
*1518 DFFPOSX1_99
*1519 DFFPOSX1_3
*1520 DFFPOSX1_425
*1521 clock_i_bF_buf35
*1522 CLKBUF1_67
*1523 DFFPOSX1_123
*1524 DFFPOSX1_122
*1525 DFFPOSX1_24
*1526 DFFPOSX1_792
*1527 DFFPOSX1_213
*1528 DFFPOSX1_139
*1529 DFFPOSX1_627
*1530 DFFPOSX1_615
*1531 DFFPOSX1_613
*1532 DFFPOSX1_56
*1533 clock_i_bF_buf34
*1534 CLKBUF1_68
*1535 DFFPOSX1_980
*1536 DFFPOSX1_918
*1537 DFFPOSX1_852
*1538 DFFPOSX1_969
*1539 DFFPOSX1_904
*1540 DFFPOSX1_982
*1541 DFFPOSX1_853
*1542 DFFPOSX1_789
*1543 DFFPOSX1_793
*1544 DFFPOSX1_916
*1545 clock_i_bF_buf33
*1546 CLKBUF1_69
*1547 DFFPOSX1_804
*1548 DFFPOSX1_995
*1549 DFFPOSX1_291
*1550 DFFPOSX1_65
*1551 DFFPOSX1_343
*1552 DFFPOSX1_933
*1553 DFFPOSX1_924
*1554 DFFPOSX1_867
*1555 DFFPOSX1_868
*1556 DFFPOSX1_927
*1557 clock_i_bF_buf32
*1558 CLKBUF1_70
*1559 DFFPOSX1_545
*1560 DFFPOSX1_822
*1561 DFFPOSX1_265
*1562 DFFPOSX1_248
*1563 DFFPOSX1_950
*1564 DFFPOSX1_757
*1565 DFFPOSX1_546
*1566 DFFPOSX1_329
*1567 DFFPOSX1_947
*1568 DFFPOSX1_418
*1569 clock_i_bF_buf31
*1570 CLKBUF1_71
*1571 DFFPOSX1_801
*1572 DFFPOSX1_732
*1573 DFFPOSX1_256
*1574 DFFPOSX1_101
*1575 DFFPOSX1_320
*1576 DFFPOSX1_800
*1577 DFFPOSX1_105
*1578 DFFPOSX1_643
*1579 DFFPOSX1_719
*1580 DFFPOSX1_628
*1581 clock_i_bF_buf30
*1582 CLKBUF1_72
*1583 DFFPOSX1_468
*1584 DFFPOSX1_600
*1585 DFFPOSX1_311
*1586 DFFPOSX1_541
*1587 DFFPOSX1_946
*1588 DFFPOSX1_882
*1589 DFFPOSX1_542
*1590 DFFPOSX1_943
*1591 DFFPOSX1_595
*1592 DFFPOSX1_599
*1593 clock_i_bF_buf29
*1594 CLKBUF1_73
*1595 DFFPOSX1_199
*1596 DFFPOSX1_735
*1597 DFFPOSX1_135
*1598 DFFPOSX1_86
*1599 DFFPOSX1_937
*1600 DFFPOSX1_1016
*1601 DFFPOSX1_1022
*1602 DFFPOSX1_745
*1603 DFFPOSX1_263
*1604 DFFPOSX1_22
*1605 clock_i_bF_buf28
*1606 CLKBUF1_74
*1607 DFFPOSX1_816
*1608 DFFPOSX1_747
*1609 DFFPOSX1_881
*1610 DFFPOSX1_874
*1611 DFFPOSX1_245
*1612 DFFPOSX1_209
*1613 DFFPOSX1_232
*1614 DFFPOSX1_69
*1615 DFFPOSX1_307
*1616 DFFPOSX1_181
*1617 clock_i_bF_buf27
*1618 CLKBUF1_75
*1619 DFFPOSX1_66
*1620 DFFPOSX1_465
*1621 DFFPOSX1_424
*1622 DFFPOSX1_427
*1623 DFFPOSX1_494
*1624 DFFPOSX1_372
*1625 DFFPOSX1_665
*1626 DFFPOSX1_366
*1627 DFFPOSX1_431
*1628 DFFPOSX1_34
*1629 clock_i_bF_buf26
*1630 CLKBUF1_76
*1631 DFFPOSX1_926
*1632 DFFPOSX1_193
*1633 DFFPOSX1_859
*1634 DFFPOSX1_861
*1635 DFFPOSX1_794
*1636 DFFPOSX1_860
*1637 DFFPOSX1_796
*1638 DFFPOSX1_976
*1639 DFFPOSX1_795
*1640 DFFPOSX1_614
*1641 clock_i_bF_buf25
*1642 CLKBUF1_77
*1643 DFFPOSX1_49
*1644 DFFPOSX1_310
*1645 DFFPOSX1_917
*1646 DFFPOSX1_893
*1647 DFFPOSX1_909
*1648 DFFPOSX1_733
*1649 DFFPOSX1_781
*1650 DFFPOSX1_293
*1651 DFFPOSX1_351
*1652 DFFPOSX1_1003
*1653 clock_i_bF_buf24
*1654 CLKBUF1_78
*1655 DFFPOSX1_729
*1656 DFFPOSX1_259
*1657 DFFPOSX1_225
*1658 DFFPOSX1_131
*1659 DFFPOSX1_195
*1660 DFFPOSX1_809
*1661 DFFPOSX1_54
*1662 DFFPOSX1_650
*1663 DFFPOSX1_621
*1664 DFFPOSX1_873
*1665 clock_i_bF_buf23
*1666 CLKBUF1_79
*1667 DFFPOSX1_388
*1668 DFFPOSX1_521