* NGSPICE file created from BundleParser.ext - technology: scmos

* Black-box entry subcircuit for FILL abstract view
.subckt FILL gnd vdd
.ends

* Black-box entry subcircuit for NAND2X1 abstract view
.subckt NAND2X1 A B gnd Y vdd
.ends

* Black-box entry subcircuit for OAI21X1 abstract view
.subckt OAI21X1 A B C gnd Y vdd
.ends

* Black-box entry subcircuit for BUFX2 abstract view
.subckt BUFX2 A gnd Y vdd
.ends

* Black-box entry subcircuit for AND2X2 abstract view
.subckt AND2X2 A B gnd Y vdd
.ends

* Black-box entry subcircuit for INVX1 abstract view
.subckt INVX1 A gnd Y vdd
.ends

* Black-box entry subcircuit for DFFPOSX1 abstract view
.subckt DFFPOSX1 Q CLK D gnd vdd
.ends

* Black-box entry subcircuit for BUFX4 abstract view
.subckt BUFX4 A gnd Y vdd
.ends

* Black-box entry subcircuit for INVX2 abstract view
.subckt INVX2 A gnd Y vdd
.ends

* Black-box entry subcircuit for OR2X2 abstract view
.subckt OR2X2 A B gnd Y vdd
.ends

* Black-box entry subcircuit for XNOR2X1 abstract view
.subckt XNOR2X1 A B gnd Y vdd
.ends

* Black-box entry subcircuit for NOR2X1 abstract view
.subckt NOR2X1 A B gnd Y vdd
.ends

* Black-box entry subcircuit for INVX8 abstract view
.subckt INVX8 A gnd Y vdd
.ends

* Black-box entry subcircuit for NOR3X1 abstract view
.subckt NOR3X1 A B C gnd Y vdd
.ends

* Black-box entry subcircuit for CLKBUF1 abstract view
.subckt CLKBUF1 A gnd Y vdd
.ends

* Black-box entry subcircuit for MUX2X1 abstract view
.subckt MUX2X1 A B S gnd Y vdd
.ends

* Black-box entry subcircuit for NAND3X1 abstract view
.subckt NAND3X1 A B C gnd Y vdd
.ends

* Black-box entry subcircuit for AOI21X1 abstract view
.subckt AOI21X1 A B C gnd Y vdd
.ends

* Black-box entry subcircuit for INVX4 abstract view
.subckt INVX4 A gnd Y vdd
.ends

* Black-box entry subcircuit for OAI22X1 abstract view
.subckt OAI22X1 A B C D gnd Y vdd
.ends

.subckt BundleParser vdd gnd clock_i enable_i bundle_i[127] bundle_i[126] bundle_i[125]
+ bundle_i[124] bundle_i[123] bundle_i[122] bundle_i[121] bundle_i[120] bundle_i[119]
+ bundle_i[118] bundle_i[117] bundle_i[116] bundle_i[115] bundle_i[114] bundle_i[113]
+ bundle_i[112] bundle_i[111] bundle_i[110] bundle_i[109] bundle_i[108] bundle_i[107]
+ bundle_i[106] bundle_i[105] bundle_i[104] bundle_i[103] bundle_i[102] bundle_i[101]
+ bundle_i[100] bundle_i[99] bundle_i[98] bundle_i[97] bundle_i[96] bundle_i[95] bundle_i[94]
+ bundle_i[93] bundle_i[92] bundle_i[91] bundle_i[90] bundle_i[89] bundle_i[88] bundle_i[87]
+ bundle_i[86] bundle_i[85] bundle_i[84] bundle_i[83] bundle_i[82] bundle_i[81] bundle_i[80]
+ bundle_i[79] bundle_i[78] bundle_i[77] bundle_i[76] bundle_i[75] bundle_i[74] bundle_i[73]
+ bundle_i[72] bundle_i[71] bundle_i[70] bundle_i[69] bundle_i[68] bundle_i[67] bundle_i[66]
+ bundle_i[65] bundle_i[64] bundle_i[63] bundle_i[62] bundle_i[61] bundle_i[60] bundle_i[59]
+ bundle_i[58] bundle_i[57] bundle_i[56] bundle_i[55] bundle_i[54] bundle_i[53] bundle_i[52]
+ bundle_i[51] bundle_i[50] bundle_i[49] bundle_i[48] bundle_i[47] bundle_i[46] bundle_i[45]
+ bundle_i[44] bundle_i[43] bundle_i[42] bundle_i[41] bundle_i[40] bundle_i[39] bundle_i[38]
+ bundle_i[37] bundle_i[36] bundle_i[35] bundle_i[34] bundle_i[33] bundle_i[32] bundle_i[31]
+ bundle_i[30] bundle_i[29] bundle_i[28] bundle_i[27] bundle_i[26] bundle_i[25] bundle_i[24]
+ bundle_i[23] bundle_i[22] bundle_i[21] bundle_i[20] bundle_i[19] bundle_i[18] bundle_i[17]
+ bundle_i[16] bundle_i[15] bundle_i[14] bundle_i[13] bundle_i[12] bundle_i[11] bundle_i[10]
+ bundle_i[9] bundle_i[8] bundle_i[7] bundle_i[6] bundle_i[5] bundle_i[4] bundle_i[3]
+ bundle_i[2] bundle_i[1] bundle_i[0] bundleAddress_i[63] bundleAddress_i[62] bundleAddress_i[61]
+ bundleAddress_i[60] bundleAddress_i[59] bundleAddress_i[58] bundleAddress_i[57]
+ bundleAddress_i[56] bundleAddress_i[55] bundleAddress_i[54] bundleAddress_i[53]
+ bundleAddress_i[52] bundleAddress_i[51] bundleAddress_i[50] bundleAddress_i[49]
+ bundleAddress_i[48] bundleAddress_i[47] bundleAddress_i[46] bundleAddress_i[45]
+ bundleAddress_i[44] bundleAddress_i[43] bundleAddress_i[42] bundleAddress_i[41]
+ bundleAddress_i[40] bundleAddress_i[39] bundleAddress_i[38] bundleAddress_i[37]
+ bundleAddress_i[36] bundleAddress_i[35] bundleAddress_i[34] bundleAddress_i[33]
+ bundleAddress_i[32] bundleAddress_i[31] bundleAddress_i[30] bundleAddress_i[29]
+ bundleAddress_i[28] bundleAddress_i[27] bundleAddress_i[26] bundleAddress_i[25]
+ bundleAddress_i[24] bundleAddress_i[23] bundleAddress_i[22] bundleAddress_i[21]
+ bundleAddress_i[20] bundleAddress_i[19] bundleAddress_i[18] bundleAddress_i[17]
+ bundleAddress_i[16] bundleAddress_i[15] bundleAddress_i[14] bundleAddress_i[13]
+ bundleAddress_i[12] bundleAddress_i[11] bundleAddress_i[10] bundleAddress_i[9] bundleAddress_i[8]
+ bundleAddress_i[7] bundleAddress_i[6] bundleAddress_i[5] bundleAddress_i[4] bundleAddress_i[3]
+ bundleAddress_i[2] bundleAddress_i[1] bundleAddress_i[0] bundleLen_i[1] bundleLen_i[0]
+ is64Bit_i bundlePid_i[31] bundlePid_i[30] bundlePid_i[29] bundlePid_i[28] bundlePid_i[27]
+ bundlePid_i[26] bundlePid_i[25] bundlePid_i[24] bundlePid_i[23] bundlePid_i[22]
+ bundlePid_i[21] bundlePid_i[20] bundlePid_i[19] bundlePid_i[18] bundlePid_i[17]
+ bundlePid_i[16] bundlePid_i[15] bundlePid_i[14] bundlePid_i[13] bundlePid_i[12]
+ bundlePid_i[11] bundlePid_i[10] bundlePid_i[9] bundlePid_i[8] bundlePid_i[7] bundlePid_i[6]
+ bundlePid_i[5] bundlePid_i[4] bundlePid_i[3] bundlePid_i[2] bundlePid_i[1] bundlePid_i[0]
+ bundleTid_i[63] bundleTid_i[62] bundleTid_i[61] bundleTid_i[60] bundleTid_i[59]
+ bundleTid_i[58] bundleTid_i[57] bundleTid_i[56] bundleTid_i[55] bundleTid_i[54]
+ bundleTid_i[53] bundleTid_i[52] bundleTid_i[51] bundleTid_i[50] bundleTid_i[49]
+ bundleTid_i[48] bundleTid_i[47] bundleTid_i[46] bundleTid_i[45] bundleTid_i[44]
+ bundleTid_i[43] bundleTid_i[42] bundleTid_i[41] bundleTid_i[40] bundleTid_i[39]
+ bundleTid_i[38] bundleTid_i[37] bundleTid_i[36] bundleTid_i[35] bundleTid_i[34]
+ bundleTid_i[33] bundleTid_i[32] bundleTid_i[31] bundleTid_i[30] bundleTid_i[29]
+ bundleTid_i[28] bundleTid_i[27] bundleTid_i[26] bundleTid_i[25] bundleTid_i[24]
+ bundleTid_i[23] bundleTid_i[22] bundleTid_i[21] bundleTid_i[20] bundleTid_i[19]
+ bundleTid_i[18] bundleTid_i[17] bundleTid_i[16] bundleTid_i[15] bundleTid_i[14]
+ bundleTid_i[13] bundleTid_i[12] bundleTid_i[11] bundleTid_i[10] bundleTid_i[9] bundleTid_i[8]
+ bundleTid_i[7] bundleTid_i[6] bundleTid_i[5] bundleTid_i[4] bundleTid_i[3] bundleTid_i[2]
+ bundleTid_i[1] bundleTid_i[0] bundleStartMajId_i[63] bundleStartMajId_i[62] bundleStartMajId_i[61]
+ bundleStartMajId_i[60] bundleStartMajId_i[59] bundleStartMajId_i[58] bundleStartMajId_i[57]
+ bundleStartMajId_i[56] bundleStartMajId_i[55] bundleStartMajId_i[54] bundleStartMajId_i[53]
+ bundleStartMajId_i[52] bundleStartMajId_i[51] bundleStartMajId_i[50] bundleStartMajId_i[49]
+ bundleStartMajId_i[48] bundleStartMajId_i[47] bundleStartMajId_i[46] bundleStartMajId_i[45]
+ bundleStartMajId_i[44] bundleStartMajId_i[43] bundleStartMajId_i[42] bundleStartMajId_i[41]
+ bundleStartMajId_i[40] bundleStartMajId_i[39] bundleStartMajId_i[38] bundleStartMajId_i[37]
+ bundleStartMajId_i[36] bundleStartMajId_i[35] bundleStartMajId_i[34] bundleStartMajId_i[33]
+ bundleStartMajId_i[32] bundleStartMajId_i[31] bundleStartMajId_i[30] bundleStartMajId_i[29]
+ bundleStartMajId_i[28] bundleStartMajId_i[27] bundleStartMajId_i[26] bundleStartMajId_i[25]
+ bundleStartMajId_i[24] bundleStartMajId_i[23] bundleStartMajId_i[22] bundleStartMajId_i[21]
+ bundleStartMajId_i[20] bundleStartMajId_i[19] bundleStartMajId_i[18] bundleStartMajId_i[17]
+ bundleStartMajId_i[16] bundleStartMajId_i[15] bundleStartMajId_i[14] bundleStartMajId_i[13]
+ bundleStartMajId_i[12] bundleStartMajId_i[11] bundleStartMajId_i[10] bundleStartMajId_i[9]
+ bundleStartMajId_i[8] bundleStartMajId_i[7] bundleStartMajId_i[6] bundleStartMajId_i[5]
+ bundleStartMajId_i[4] bundleStartMajId_i[3] bundleStartMajId_i[2] bundleStartMajId_i[1]
+ bundleStartMajId_i[0] enable1_i enable2_i enable3_i enable4_i enable1_o enable2_o
+ enable3_o enable4_o instr1_o[31] instr1_o[30] instr1_o[29] instr1_o[28] instr1_o[27]
+ instr1_o[26] instr1_o[25] instr1_o[24] instr1_o[23] instr1_o[22] instr1_o[21] instr1_o[20]
+ instr1_o[19] instr1_o[18] instr1_o[17] instr1_o[16] instr1_o[15] instr1_o[14] instr1_o[13]
+ instr1_o[12] instr1_o[11] instr1_o[10] instr1_o[9] instr1_o[8] instr1_o[7] instr1_o[6]
+ instr1_o[5] instr1_o[4] instr1_o[3] instr1_o[2] instr1_o[1] instr1_o[0] instr2_o[31]
+ instr2_o[30] instr2_o[29] instr2_o[28] instr2_o[27] instr2_o[26] instr2_o[25] instr2_o[24]
+ instr2_o[23] instr2_o[22] instr2_o[21] instr2_o[20] instr2_o[19] instr2_o[18] instr2_o[17]
+ instr2_o[16] instr2_o[15] instr2_o[14] instr2_o[13] instr2_o[12] instr2_o[11] instr2_o[10]
+ instr2_o[9] instr2_o[8] instr2_o[7] instr2_o[6] instr2_o[5] instr2_o[4] instr2_o[3]
+ instr2_o[2] instr2_o[1] instr2_o[0] instr3_o[31] instr3_o[30] instr3_o[29] instr3_o[28]
+ instr3_o[27] instr3_o[26] instr3_o[25] instr3_o[24] instr3_o[23] instr3_o[22] instr3_o[21]
+ instr3_o[20] instr3_o[19] instr3_o[18] instr3_o[17] instr3_o[16] instr3_o[15] instr3_o[14]
+ instr3_o[13] instr3_o[12] instr3_o[11] instr3_o[10] instr3_o[9] instr3_o[8] instr3_o[7]
+ instr3_o[6] instr3_o[5] instr3_o[4] instr3_o[3] instr3_o[2] instr3_o[1] instr3_o[0]
+ instr4_o[31] instr4_o[30] instr4_o[29] instr4_o[28] instr4_o[27] instr4_o[26] instr4_o[25]
+ instr4_o[24] instr4_o[23] instr4_o[22] instr4_o[21] instr4_o[20] instr4_o[19] instr4_o[18]
+ instr4_o[17] instr4_o[16] instr4_o[15] instr4_o[14] instr4_o[13] instr4_o[12] instr4_o[11]
+ instr4_o[10] instr4_o[9] instr4_o[8] instr4_o[7] instr4_o[6] instr4_o[5] instr4_o[4]
+ instr4_o[3] instr4_o[2] instr4_o[1] instr4_o[0] addr1_o[63] addr1_o[62] addr1_o[61]
+ addr1_o[60] addr1_o[59] addr1_o[58] addr1_o[57] addr1_o[56] addr1_o[55] addr1_o[54]
+ addr1_o[53] addr1_o[52] addr1_o[51] addr1_o[50] addr1_o[49] addr1_o[48] addr1_o[47]
+ addr1_o[46] addr1_o[45] addr1_o[44] addr1_o[43] addr1_o[42] addr1_o[41] addr1_o[40]
+ addr1_o[39] addr1_o[38] addr1_o[37] addr1_o[36] addr1_o[35] addr1_o[34] addr1_o[33]
+ addr1_o[32] addr1_o[31] addr1_o[30] addr1_o[29] addr1_o[28] addr1_o[27] addr1_o[26]
+ addr1_o[25] addr1_o[24] addr1_o[23] addr1_o[22] addr1_o[21] addr1_o[20] addr1_o[19]
+ addr1_o[18] addr1_o[17] addr1_o[16] addr1_o[15] addr1_o[14] addr1_o[13] addr1_o[12]
+ addr1_o[11] addr1_o[10] addr1_o[9] addr1_o[8] addr1_o[7] addr1_o[6] addr1_o[5] addr1_o[4]
+ addr1_o[3] addr1_o[2] addr1_o[1] addr1_o[0] addr2_o[63] addr2_o[62] addr2_o[61]
+ addr2_o[60] addr2_o[59] addr2_o[58] addr2_o[57] addr2_o[56] addr2_o[55] addr2_o[54]
+ addr2_o[53] addr2_o[52] addr2_o[51] addr2_o[50] addr2_o[49] addr2_o[48] addr2_o[47]
+ addr2_o[46] addr2_o[45] addr2_o[44] addr2_o[43] addr2_o[42] addr2_o[41] addr2_o[40]
+ addr2_o[39] addr2_o[38] addr2_o[37] addr2_o[36] addr2_o[35] addr2_o[34] addr2_o[33]
+ addr2_o[32] addr2_o[31] addr2_o[30] addr2_o[29] addr2_o[28] addr2_o[27] addr2_o[26]
+ addr2_o[25] addr2_o[24] addr2_o[23] addr2_o[22] addr2_o[21] addr2_o[20] addr2_o[19]
+ addr2_o[18] addr2_o[17] addr2_o[16] addr2_o[15] addr2_o[14] addr2_o[13] addr2_o[12]
+ addr2_o[11] addr2_o[10] addr2_o[9] addr2_o[8] addr2_o[7] addr2_o[6] addr2_o[5] addr2_o[4]
+ addr2_o[3] addr2_o[2] addr2_o[1] addr2_o[0] addr3_o[63] addr3_o[62] addr3_o[61]
+ addr3_o[60] addr3_o[59] addr3_o[58] addr3_o[57] addr3_o[56] addr3_o[55] addr3_o[54]
+ addr3_o[53] addr3_o[52] addr3_o[51] addr3_o[50] addr3_o[49] addr3_o[48] addr3_o[47]
+ addr3_o[46] addr3_o[45] addr3_o[44] addr3_o[43] addr3_o[42] addr3_o[41] addr3_o[40]
+ addr3_o[39] addr3_o[38] addr3_o[37] addr3_o[36] addr3_o[35] addr3_o[34] addr3_o[33]
+ addr3_o[32] addr3_o[31] addr3_o[30] addr3_o[29] addr3_o[28] addr3_o[27] addr3_o[26]
+ addr3_o[25] addr3_o[24] addr3_o[23] addr3_o[22] addr3_o[21] addr3_o[20] addr3_o[19]
+ addr3_o[18] addr3_o[17] addr3_o[16] addr3_o[15] addr3_o[14] addr3_o[13] addr3_o[12]
+ addr3_o[11] addr3_o[10] addr3_o[9] addr3_o[8] addr3_o[7] addr3_o[6] addr3_o[5] addr3_o[4]
+ addr3_o[3] addr3_o[2] addr3_o[1] addr3_o[0] addr4_o[63] addr4_o[62] addr4_o[61]
+ addr4_o[60] addr4_o[59] addr4_o[58] addr4_o[57] addr4_o[56] addr4_o[55] addr4_o[54]
+ addr4_o[53] addr4_o[52] addr4_o[51] addr4_o[50] addr4_o[49] addr4_o[48] addr4_o[47]
+ addr4_o[46] addr4_o[45] addr4_o[44] addr4_o[43] addr4_o[42] addr4_o[41] addr4_o[40]
+ addr4_o[39] addr4_o[38] addr4_o[37] addr4_o[36] addr4_o[35] addr4_o[34] addr4_o[33]
+ addr4_o[32] addr4_o[31] addr4_o[30] addr4_o[29] addr4_o[28] addr4_o[27] addr4_o[26]
+ addr4_o[25] addr4_o[24] addr4_o[23] addr4_o[22] addr4_o[21] addr4_o[20] addr4_o[19]
+ addr4_o[18] addr4_o[17] addr4_o[16] addr4_o[15] addr4_o[14] addr4_o[13] addr4_o[12]
+ addr4_o[11] addr4_o[10] addr4_o[9] addr4_o[8] addr4_o[7] addr4_o[6] addr4_o[5] addr4_o[4]
+ addr4_o[3] addr4_o[2] addr4_o[1] addr4_o[0] is64b1_o is64b2_o is64b3_o is64b4_o
+ pid1_o[31] pid1_o[30] pid1_o[29] pid1_o[28] pid1_o[27] pid1_o[26] pid1_o[25] pid1_o[24]
+ pid1_o[23] pid1_o[22] pid1_o[21] pid1_o[20] pid1_o[19] pid1_o[18] pid1_o[17] pid1_o[16]
+ pid1_o[15] pid1_o[14] pid1_o[13] pid1_o[12] pid1_o[11] pid1_o[10] pid1_o[9] pid1_o[8]
+ pid1_o[7] pid1_o[6] pid1_o[5] pid1_o[4] pid1_o[3] pid1_o[2] pid1_o[1] pid1_o[0]
+ pid2_o[31] pid2_o[30] pid2_o[29] pid2_o[28] pid2_o[27] pid2_o[26] pid2_o[25] pid2_o[24]
+ pid2_o[23] pid2_o[22] pid2_o[21] pid2_o[20] pid2_o[19] pid2_o[18] pid2_o[17] pid2_o[16]
+ pid2_o[15] pid2_o[14] pid2_o[13] pid2_o[12] pid2_o[11] pid2_o[10] pid2_o[9] pid2_o[8]
+ pid2_o[7] pid2_o[6] pid2_o[5] pid2_o[4] pid2_o[3] pid2_o[2] pid2_o[1] pid2_o[0]
+ pid3_o[31] pid3_o[30] pid3_o[29] pid3_o[28] pid3_o[27] pid3_o[26] pid3_o[25] pid3_o[24]
+ pid3_o[23] pid3_o[22] pid3_o[21] pid3_o[20] pid3_o[19] pid3_o[18] pid3_o[17] pid3_o[16]
+ pid3_o[15] pid3_o[14] pid3_o[13] pid3_o[12] pid3_o[11] pid3_o[10] pid3_o[9] pid3_o[8]
+ pid3_o[7] pid3_o[6] pid3_o[5] pid3_o[4] pid3_o[3] pid3_o[2] pid3_o[1] pid3_o[0]
+ pid4_o[31] pid4_o[30] pid4_o[29] pid4_o[28] pid4_o[27] pid4_o[26] pid4_o[25] pid4_o[24]
+ pid4_o[23] pid4_o[22] pid4_o[21] pid4_o[20] pid4_o[19] pid4_o[18] pid4_o[17] pid4_o[16]
+ pid4_o[15] pid4_o[14] pid4_o[13] pid4_o[12] pid4_o[11] pid4_o[10] pid4_o[9] pid4_o[8]
+ pid4_o[7] pid4_o[6] pid4_o[5] pid4_o[4] pid4_o[3] pid4_o[2] pid4_o[1] pid4_o[0]
+ tid1_o[63] tid1_o[62] tid1_o[61] tid1_o[60] tid1_o[59] tid1_o[58] tid1_o[57] tid1_o[56]
+ tid1_o[55] tid1_o[54] tid1_o[53] tid1_o[52] tid1_o[51] tid1_o[50] tid1_o[49] tid1_o[48]
+ tid1_o[47] tid1_o[46] tid1_o[45] tid1_o[44] tid1_o[43] tid1_o[42] tid1_o[41] tid1_o[40]
+ tid1_o[39] tid1_o[38] tid1_o[37] tid1_o[36] tid1_o[35] tid1_o[34] tid1_o[33] tid1_o[32]
+ tid1_o[31] tid1_o[30] tid1_o[29] tid1_o[28] tid1_o[27] tid1_o[26] tid1_o[25] tid1_o[24]
+ tid1_o[23] tid1_o[22] tid1_o[21] tid1_o[20] tid1_o[19] tid1_o[18] tid1_o[17] tid1_o[16]
+ tid1_o[15] tid1_o[14] tid1_o[13] tid1_o[12] tid1_o[11] tid1_o[10] tid1_o[9] tid1_o[8]
+ tid1_o[7] tid1_o[6] tid1_o[5] tid1_o[4] tid1_o[3] tid1_o[2] tid1_o[1] tid1_o[0]
+ tid2_o[63] tid2_o[62] tid2_o[61] tid2_o[60] tid2_o[59] tid2_o[58] tid2_o[57] tid2_o[56]
+ tid2_o[55] tid2_o[54] tid2_o[53] tid2_o[52] tid2_o[51] tid2_o[50] tid2_o[49] tid2_o[48]
+ tid2_o[47] tid2_o[46] tid2_o[45] tid2_o[44] tid2_o[43] tid2_o[42] tid2_o[41] tid2_o[40]
+ tid2_o[39] tid2_o[38] tid2_o[37] tid2_o[36] tid2_o[35] tid2_o[34] tid2_o[33] tid2_o[32]
+ tid2_o[31] tid2_o[30] tid2_o[29] tid2_o[28] tid2_o[27] tid2_o[26] tid2_o[25] tid2_o[24]
+ tid2_o[23] tid2_o[22] tid2_o[21] tid2_o[20] tid2_o[19] tid2_o[18] tid2_o[17] tid2_o[16]
+ tid2_o[15] tid2_o[14] tid2_o[13] tid2_o[12] tid2_o[11] tid2_o[10] tid2_o[9] tid2_o[8]
+ tid2_o[7] tid2_o[6] tid2_o[5] tid2_o[4] tid2_o[3] tid2_o[2] tid2_o[1] tid2_o[0]
+ tid3_o[63] tid3_o[62] tid3_o[61] tid3_o[60] tid3_o[59] tid3_o[58] tid3_o[57] tid3_o[56]
+ tid3_o[55] tid3_o[54] tid3_o[53] tid3_o[52] tid3_o[51] tid3_o[50] tid3_o[49] tid3_o[48]
+ tid3_o[47] tid3_o[46] tid3_o[45] tid3_o[44] tid3_o[43] tid3_o[42] tid3_o[41] tid3_o[40]
+ tid3_o[39] tid3_o[38] tid3_o[37] tid3_o[36] tid3_o[35] tid3_o[34] tid3_o[33] tid3_o[32]
+ tid3_o[31] tid3_o[30] tid3_o[29] tid3_o[28] tid3_o[27] tid3_o[26] tid3_o[25] tid3_o[24]
+ tid3_o[23] tid3_o[22] tid3_o[21] tid3_o[20] tid3_o[19] tid3_o[18] tid3_o[17] tid3_o[16]
+ tid3_o[15] tid3_o[14] tid3_o[13] tid3_o[12] tid3_o[11] tid3_o[10] tid3_o[9] tid3_o[8]
+ tid3_o[7] tid3_o[6] tid3_o[5] tid3_o[4] tid3_o[3] tid3_o[2] tid3_o[1] tid3_o[0]
+ tid4_o[63] tid4_o[62] tid4_o[61] tid4_o[60] tid4_o[59] tid4_o[58] tid4_o[57] tid4_o[56]
+ tid4_o[55] tid4_o[54] tid4_o[53] tid4_o[52] tid4_o[51] tid4_o[50] tid4_o[49] tid4_o[48]
+ tid4_o[47] tid4_o[46] tid4_o[45] tid4_o[44] tid4_o[43] tid4_o[42] tid4_o[41] tid4_o[40]
+ tid4_o[39] tid4_o[38] tid4_o[37] tid4_o[36] tid4_o[35] tid4_o[34] tid4_o[33] tid4_o[32]
+ tid4_o[31] tid4_o[30] tid4_o[29] tid4_o[28] tid4_o[27] tid4_o[26] tid4_o[25] tid4_o[24]
+ tid4_o[23] tid4_o[22] tid4_o[21] tid4_o[20] tid4_o[19] tid4_o[18] tid4_o[17] tid4_o[16]
+ tid4_o[15] tid4_o[14] tid4_o[13] tid4_o[12] tid4_o[11] tid4_o[10] tid4_o[9] tid4_o[8]
+ tid4_o[7] tid4_o[6] tid4_o[5] tid4_o[4] tid4_o[3] tid4_o[2] tid4_o[1] tid4_o[0]
+ majID1_o[63] majID1_o[62] majID1_o[61] majID1_o[60] majID1_o[59] majID1_o[58] majID1_o[57]
+ majID1_o[56] majID1_o[55] majID1_o[54] majID1_o[53] majID1_o[52] majID1_o[51] majID1_o[50]
+ majID1_o[49] majID1_o[48] majID1_o[47] majID1_o[46] majID1_o[45] majID1_o[44] majID1_o[43]
+ majID1_o[42] majID1_o[41] majID1_o[40] majID1_o[39] majID1_o[38] majID1_o[37] majID1_o[36]
+ majID1_o[35] majID1_o[34] majID1_o[33] majID1_o[32] majID1_o[31] majID1_o[30] majID1_o[29]
+ majID1_o[28] majID1_o[27] majID1_o[26] majID1_o[25] majID1_o[24] majID1_o[23] majID1_o[22]
+ majID1_o[21] majID1_o[20] majID1_o[19] majID1_o[18] majID1_o[17] majID1_o[16] majID1_o[15]
+ majID1_o[14] majID1_o[13] majID1_o[12] majID1_o[11] majID1_o[10] majID1_o[9] majID1_o[8]
+ majID1_o[7] majID1_o[6] majID1_o[5] majID1_o[4] majID1_o[3] majID1_o[2] majID1_o[1]
+ majID1_o[0] majID2_o[63] majID2_o[62] majID2_o[61] majID2_o[60] majID2_o[59] majID2_o[58]
+ majID2_o[57] majID2_o[56] majID2_o[55] majID2_o[54] majID2_o[53] majID2_o[52] majID2_o[51]
+ majID2_o[50] majID2_o[49] majID2_o[48] majID2_o[47] majID2_o[46] majID2_o[45] majID2_o[44]
+ majID2_o[43] majID2_o[42] majID2_o[41] majID2_o[40] majID2_o[39] majID2_o[38] majID2_o[37]
+ majID2_o[36] majID2_o[35] majID2_o[34] majID2_o[33] majID2_o[32] majID2_o[31] majID2_o[30]
+ majID2_o[29] majID2_o[28] majID2_o[27] majID2_o[26] majID2_o[25] majID2_o[24] majID2_o[23]
+ majID2_o[22] majID2_o[21] majID2_o[20] majID2_o[19] majID2_o[18] majID2_o[17] majID2_o[16]
+ majID2_o[15] majID2_o[14] majID2_o[13] majID2_o[12] majID2_o[11] majID2_o[10] majID2_o[9]
+ majID2_o[8] majID2_o[7] majID2_o[6] majID2_o[5] majID2_o[4] majID2_o[3] majID2_o[2]
+ majID2_o[1] majID2_o[0] majID3_o[63] majID3_o[62] majID3_o[61] majID3_o[60] majID3_o[59]
+ majID3_o[58] majID3_o[57] majID3_o[56] majID3_o[55] majID3_o[54] majID3_o[53] majID3_o[52]
+ majID3_o[51] majID3_o[50] majID3_o[49] majID3_o[48] majID3_o[47] majID3_o[46] majID3_o[45]
+ majID3_o[44] majID3_o[43] majID3_o[42] majID3_o[41] majID3_o[40] majID3_o[39] majID3_o[38]
+ majID3_o[37] majID3_o[36] majID3_o[35] majID3_o[34] majID3_o[33] majID3_o[32] majID3_o[31]
+ majID3_o[30] majID3_o[29] majID3_o[28] majID3_o[27] majID3_o[26] majID3_o[25] majID3_o[24]
+ majID3_o[23] majID3_o[22] majID3_o[21] majID3_o[20] majID3_o[19] majID3_o[18] majID3_o[17]
+ majID3_o[16] majID3_o[15] majID3_o[14] majID3_o[13] majID3_o[12] majID3_o[11] majID3_o[10]
+ majID3_o[9] majID3_o[8] majID3_o[7] majID3_o[6] majID3_o[5] majID3_o[4] majID3_o[3]
+ majID3_o[2] majID3_o[1] majID3_o[0] majID4_o[63] majID4_o[62] majID4_o[61] majID4_o[60]
+ majID4_o[59] majID4_o[58] majID4_o[57] majID4_o[56] majID4_o[55] majID4_o[54] majID4_o[53]
+ majID4_o[52] majID4_o[51] majID4_o[50] majID4_o[49] majID4_o[48] majID4_o[47] majID4_o[46]
+ majID4_o[45] majID4_o[44] majID4_o[43] majID4_o[42] majID4_o[41] majID4_o[40] majID4_o[39]
+ majID4_o[38] majID4_o[37] majID4_o[36] majID4_o[35] majID4_o[34] majID4_o[33] majID4_o[32]
+ majID4_o[31] majID4_o[30] majID4_o[29] majID4_o[28] majID4_o[27] majID4_o[26] majID4_o[25]
+ majID4_o[24] majID4_o[23] majID4_o[22] majID4_o[21] majID4_o[20] majID4_o[19] majID4_o[18]
+ majID4_o[17] majID4_o[16] majID4_o[15] majID4_o[14] majID4_o[13] majID4_o[12] majID4_o[11]
+ majID4_o[10] majID4_o[9] majID4_o[8] majID4_o[7] majID4_o[6] majID4_o[5] majID4_o[4]
+ majID4_o[3] majID4_o[2] majID4_o[1] majID4_o[0]
XFILL_6_DFFPOSX1_728 gnd vdd FILL
XFILL_6_DFFPOSX1_739 gnd vdd FILL
XFILL_9_6_0 gnd vdd FILL
XFILL_2_OAI21X1_240 gnd vdd FILL
XFILL_5_DFFPOSX1_9 gnd vdd FILL
XNAND2X1_580 bundleAddress_i[6] INVX2_104/A gnd INVX1_197/A vdd NAND2X1
XNAND2X1_591 INVX1_183/A NAND2X1_591/B gnd NAND2X1_591/Y vdd NAND2X1
XFILL_0_NAND2X1_309 gnd vdd FILL
XFILL_17_5_0 gnd vdd FILL
XFILL_1_DFFPOSX1_1004 gnd vdd FILL
XFILL_1_DFFPOSX1_1026 gnd vdd FILL
XFILL_5_DFFPOSX1_318 gnd vdd FILL
XFILL_5_DFFPOSX1_307 gnd vdd FILL
XFILL_1_DFFPOSX1_1015 gnd vdd FILL
XFILL_5_DFFPOSX1_329 gnd vdd FILL
XOAI21X1_1804 BUFX4_336/Y INVX2_176/Y NAND2X1_745/Y gnd OAI21X1_1804/Y vdd OAI21X1
XFILL_22_11_1 gnd vdd FILL
XOAI21X1_1815 BUFX4_364/Y INVX2_187/Y NAND2X1_756/Y gnd OAI21X1_1815/Y vdd OAI21X1
XOAI21X1_1826 OAI21X1_2/A INVX2_198/Y NAND2X1_767/Y gnd OAI21X1_1826/Y vdd OAI21X1
XFILL_3_DFFPOSX1_791 gnd vdd FILL
XFILL_0_OAI21X1_804 gnd vdd FILL
XFILL_3_DFFPOSX1_780 gnd vdd FILL
XFILL_0_OAI21X1_837 gnd vdd FILL
XFILL_0_OAI21X1_826 gnd vdd FILL
XFILL_3_CLKBUF1_90 gnd vdd FILL
XFILL_0_OAI21X1_815 gnd vdd FILL
XFILL_0_OAI21X1_848 gnd vdd FILL
XFILL_0_OAI21X1_859 gnd vdd FILL
XFILL_2_DFFPOSX1_18 gnd vdd FILL
XFILL_2_DFFPOSX1_29 gnd vdd FILL
XFILL_0_OAI21X1_1614 gnd vdd FILL
XFILL_0_OAI21X1_1603 gnd vdd FILL
XFILL_0_OAI21X1_1625 gnd vdd FILL
XBUFX2_490 BUFX2_490/A gnd majID2_o[24] vdd BUFX2
XFILL_0_OAI21X1_1647 gnd vdd FILL
XFILL_0_OAI21X1_1636 gnd vdd FILL
XFILL_2_DFFPOSX1_392 gnd vdd FILL
XFILL_2_DFFPOSX1_381 gnd vdd FILL
XFILL_2_DFFPOSX1_370 gnd vdd FILL
XFILL_0_OAI21X1_1658 gnd vdd FILL
XFILL_0_OAI21X1_1669 gnd vdd FILL
XFILL_27_10_1 gnd vdd FILL
XFILL_5_DFFPOSX1_830 gnd vdd FILL
XFILL_5_DFFPOSX1_841 gnd vdd FILL
XFILL_5_DFFPOSX1_852 gnd vdd FILL
XFILL_5_DFFPOSX1_863 gnd vdd FILL
XFILL_5_DFFPOSX1_874 gnd vdd FILL
XFILL_5_DFFPOSX1_885 gnd vdd FILL
XFILL_5_DFFPOSX1_896 gnd vdd FILL
XFILL_1_XNOR2X1_31 gnd vdd FILL
XFILL_1_XNOR2X1_20 gnd vdd FILL
XFILL_1_XNOR2X1_64 gnd vdd FILL
XFILL_1_XNOR2X1_53 gnd vdd FILL
XFILL_1_XNOR2X1_42 gnd vdd FILL
XFILL_4_DFFPOSX1_1019 gnd vdd FILL
XFILL_1_XNOR2X1_75 gnd vdd FILL
XFILL_1_XNOR2X1_97 gnd vdd FILL
XFILL_4_DFFPOSX1_1008 gnd vdd FILL
XFILL_1_XNOR2X1_86 gnd vdd FILL
XFILL_4_DFFPOSX1_420 gnd vdd FILL
XFILL_4_DFFPOSX1_431 gnd vdd FILL
XFILL_4_DFFPOSX1_442 gnd vdd FILL
XFILL_4_DFFPOSX1_453 gnd vdd FILL
XFILL_4_DFFPOSX1_464 gnd vdd FILL
XFILL_0_INVX2_109 gnd vdd FILL
XFILL_4_DFFPOSX1_486 gnd vdd FILL
XFILL_4_DFFPOSX1_497 gnd vdd FILL
XFILL_4_DFFPOSX1_475 gnd vdd FILL
XFILL_2_11_1 gnd vdd FILL
XFILL_29_18_0 gnd vdd FILL
XFILL_1_BUFX2_310 gnd vdd FILL
XFILL_1_BUFX2_354 gnd vdd FILL
XFILL_1_BUFX2_343 gnd vdd FILL
XFILL_1_BUFX2_387 gnd vdd FILL
XOAI21X1_371 BUFX4_325/Y INVX4_21/Y OAI21X1_371/C gnd OAI21X1_371/Y vdd OAI21X1
XOAI21X1_360 BUFX4_346/Y OR2X2_15/B OAI21X1_360/C gnd OAI21X1_360/Y vdd OAI21X1
XOAI21X1_382 BUFX4_346/Y INVX1_3/Y OAI21X1_382/C gnd OAI21X1_382/Y vdd OAI21X1
XAND2X2_5 bundleStartMajId_i[42] bundleStartMajId_i[41] gnd AND2X2_5/Y vdd AND2X2
XFILL_1_BUFX2_398 gnd vdd FILL
XFILL_1_OAI21X1_1309 gnd vdd FILL
XOAI21X1_393 INVX1_6/Y BUFX4_244/Y OAI21X1_393/C gnd OAI21X1_393/Y vdd OAI21X1
XFILL_6_DFFPOSX1_525 gnd vdd FILL
XFILL_6_DFFPOSX1_536 gnd vdd FILL
XFILL_6_DFFPOSX1_503 gnd vdd FILL
XFILL_6_DFFPOSX1_514 gnd vdd FILL
XFILL_7_10_1 gnd vdd FILL
XFILL_0_NAND2X1_106 gnd vdd FILL
XFILL_0_INVX1_120 gnd vdd FILL
XFILL_0_INVX1_131 gnd vdd FILL
XFILL_0_NAND2X1_128 gnd vdd FILL
XFILL_0_NAND2X1_139 gnd vdd FILL
XFILL_0_NAND2X1_117 gnd vdd FILL
XFILL_0_INVX1_142 gnd vdd FILL
XFILL_0_INVX1_164 gnd vdd FILL
XFILL_1_AOI21X1_20 gnd vdd FILL
XFILL_1_AOI21X1_31 gnd vdd FILL
XFILL_0_INVX1_153 gnd vdd FILL
XFILL_1_AOI21X1_42 gnd vdd FILL
XFILL_33_8_1 gnd vdd FILL
XFILL_32_3_0 gnd vdd FILL
XFILL_0_INVX1_186 gnd vdd FILL
XFILL_1_AOI21X1_53 gnd vdd FILL
XFILL_0_INVX1_197 gnd vdd FILL
XFILL_0_INVX1_175 gnd vdd FILL
XFILL_1_AOI21X1_64 gnd vdd FILL
XFILL_5_DFFPOSX1_104 gnd vdd FILL
XFILL_5_DFFPOSX1_126 gnd vdd FILL
XFILL_5_DFFPOSX1_115 gnd vdd FILL
XFILL_5_DFFPOSX1_137 gnd vdd FILL
XFILL_5_DFFPOSX1_148 gnd vdd FILL
XFILL_5_DFFPOSX1_159 gnd vdd FILL
XOAI21X1_1623 INVX2_126/Y BUFX4_218/Y NAND2X1_691/Y gnd DFFPOSX1_13/D vdd OAI21X1
XOAI21X1_1601 BUFX4_339/Y INVX2_137/Y NAND2X1_670/Y gnd OAI21X1_1601/Y vdd OAI21X1
XOAI21X1_1612 BUFX4_320/Y INVX2_116/Y NAND2X1_681/Y gnd DFFPOSX1_3/D vdd OAI21X1
XFILL_1_OAI21X1_1821 gnd vdd FILL
XFILL_1_OAI21X1_1810 gnd vdd FILL
XOAI21X1_1634 INVX2_137/Y BUFX4_219/Y NAND2X1_702/Y gnd DFFPOSX1_24/D vdd OAI21X1
XOAI21X1_1656 BUFX4_1/A OAI21X1_7/A BUFX2_740/A gnd OAI21X1_1657/C vdd OAI21X1
XOAI21X1_1645 INVX2_116/Y BUFX4_217/Y NAND2X1_713/Y gnd DFFPOSX1_35/D vdd OAI21X1
XOAI21X1_1678 BUFX4_2/Y BUFX4_368/Y BUFX2_721/A gnd OAI21X1_1679/C vdd OAI21X1
XOAI21X1_1689 BUFX4_136/Y INVX2_138/Y OAI21X1_1689/C gnd DFFPOSX1_57/D vdd OAI21X1
XOAI21X1_1667 BUFX4_140/Y INVX2_127/Y OAI21X1_1667/C gnd DFFPOSX1_46/D vdd OAI21X1
XFILL_0_OAI21X1_612 gnd vdd FILL
XFILL_0_OAI21X1_623 gnd vdd FILL
XFILL_0_OAI21X1_601 gnd vdd FILL
XFILL_0_OAI21X1_656 gnd vdd FILL
XFILL_0_OAI21X1_645 gnd vdd FILL
XFILL_0_OAI21X1_634 gnd vdd FILL
XFILL_1_OAI21X1_827 gnd vdd FILL
XFILL_1_OAI21X1_805 gnd vdd FILL
XFILL_1_OAI21X1_816 gnd vdd FILL
XFILL_1_OAI21X1_838 gnd vdd FILL
XFILL_1_OAI21X1_849 gnd vdd FILL
XFILL_0_OAI21X1_667 gnd vdd FILL
XFILL_9_18_0 gnd vdd FILL
XFILL_0_OAI21X1_689 gnd vdd FILL
XFILL_0_OAI21X1_678 gnd vdd FILL
XFILL_1_AND2X2_13 gnd vdd FILL
XFILL_1_AND2X2_24 gnd vdd FILL
XFILL_3_DFFPOSX1_19 gnd vdd FILL
XFILL_13_16_1 gnd vdd FILL
XFILL_0_OAI21X1_1400 gnd vdd FILL
XFILL_0_NAND2X1_651 gnd vdd FILL
XFILL_0_OAI21X1_1433 gnd vdd FILL
XFILL_0_OAI21X1_1422 gnd vdd FILL
XFILL_0_OAI21X1_1411 gnd vdd FILL
XFILL_0_NAND2X1_640 gnd vdd FILL
XFILL_0_NAND2X1_662 gnd vdd FILL
XFILL_0_NAND2X1_673 gnd vdd FILL
XFILL_0_NAND2X1_684 gnd vdd FILL
XFILL_0_OAI21X1_1466 gnd vdd FILL
XFILL_24_8_1 gnd vdd FILL
XFILL_23_3_0 gnd vdd FILL
XFILL_0_OAI21X1_1455 gnd vdd FILL
XFILL_0_NAND2X1_695 gnd vdd FILL
XFILL_0_OAI21X1_1444 gnd vdd FILL
XFILL_0_OAI21X1_1477 gnd vdd FILL
XFILL_0_OAI21X1_1488 gnd vdd FILL
XFILL_0_OAI21X1_1499 gnd vdd FILL
XFILL_4_DFFPOSX1_6 gnd vdd FILL
XFILL_0_BUFX2_8 gnd vdd FILL
XFILL_5_DFFPOSX1_660 gnd vdd FILL
XFILL_5_DFFPOSX1_671 gnd vdd FILL
XFILL_5_DFFPOSX1_682 gnd vdd FILL
XFILL_5_DFFPOSX1_693 gnd vdd FILL
XFILL_18_15_1 gnd vdd FILL
XFILL_7_9_1 gnd vdd FILL
XFILL_6_4_0 gnd vdd FILL
XFILL_4_DFFPOSX1_261 gnd vdd FILL
XFILL_0_NAND2X1_19 gnd vdd FILL
XFILL_4_DFFPOSX1_272 gnd vdd FILL
XFILL_31_17_1 gnd vdd FILL
XFILL_4_DFFPOSX1_250 gnd vdd FILL
XFILL_4_DFFPOSX1_283 gnd vdd FILL
XFILL_12_11_0 gnd vdd FILL
XFILL_4_DFFPOSX1_294 gnd vdd FILL
XFILL_2_BUFX4_382 gnd vdd FILL
XFILL_15_8_1 gnd vdd FILL
XFILL_0_INVX2_8 gnd vdd FILL
XFILL_14_3_0 gnd vdd FILL
XFILL_1_BUFX2_151 gnd vdd FILL
XFILL_1_BUFX2_162 gnd vdd FILL
XFILL_1_BUFX2_140 gnd vdd FILL
XFILL_1_BUFX2_195 gnd vdd FILL
XFILL_1_BUFX2_184 gnd vdd FILL
XFILL_0_BUFX2_900 gnd vdd FILL
XFILL_0_BUFX2_911 gnd vdd FILL
XFILL_0_BUFX2_933 gnd vdd FILL
XFILL_0_BUFX2_922 gnd vdd FILL
XFILL_1_OAI21X1_1106 gnd vdd FILL
XFILL_1_OAI21X1_1128 gnd vdd FILL
XFILL_1_OAI21X1_1117 gnd vdd FILL
XINVX1_210 NOR3X1_18/A gnd INVX1_210/Y vdd INVX1
XDFFPOSX1_509 BUFX2_539/A CLKBUF1_60/Y OAI21X1_567/Y gnd vdd DFFPOSX1
XOAI21X1_190 BUFX4_6/A BUFX4_370/Y BUFX2_960/A gnd OAI21X1_191/C vdd OAI21X1
XFILL_0_BUFX2_944 gnd vdd FILL
XFILL_1_DFFPOSX1_718 gnd vdd FILL
XFILL_0_BUFX2_955 gnd vdd FILL
XINVX1_221 INVX1_221/A gnd INVX1_221/Y vdd INVX1
XFILL_1_DFFPOSX1_729 gnd vdd FILL
XFILL_0_BUFX2_966 gnd vdd FILL
XFILL_1_DFFPOSX1_707 gnd vdd FILL
XFILL_1_OAI21X1_1139 gnd vdd FILL
XFILL_0_BUFX2_999 gnd vdd FILL
XFILL_0_BUFX2_988 gnd vdd FILL
XFILL_0_BUFX2_977 gnd vdd FILL
XFILL_36_16_1 gnd vdd FILL
XFILL_17_10_0 gnd vdd FILL
XFILL_6_DFFPOSX1_377 gnd vdd FILL
XNAND2X1_32 BUFX2_858/A BUFX4_207/Y gnd OAI21X1_32/C vdd NAND2X1
XFILL_6_DFFPOSX1_399 gnd vdd FILL
XNAND2X1_43 BUFX2_870/A BUFX4_183/Y gnd OAI21X1_43/C vdd NAND2X1
XFILL_6_DFFPOSX1_388 gnd vdd FILL
XNAND2X1_10 BUFX2_853/A BUFX4_233/Y gnd OAI21X1_10/C vdd NAND2X1
XNAND2X1_21 BUFX2_846/A BUFX4_237/Y gnd OAI21X1_21/C vdd NAND2X1
XNAND2X1_65 BUFX2_894/A BUFX4_223/Y gnd OAI21X1_65/C vdd NAND2X1
XNAND2X1_54 BUFX2_882/A BUFX4_222/Y gnd OAI21X1_54/C vdd NAND2X1
XNAND2X1_76 BUFX2_427/A OAI21X1_6/A gnd NAND2X1_76/Y vdd NAND2X1
XFILL_30_12_0 gnd vdd FILL
XFILL_0_XNOR2X1_72 gnd vdd FILL
XNAND2X1_98 BUFX2_412/A BUFX4_378/Y gnd NAND2X1_98/Y vdd NAND2X1
XFILL_0_XNOR2X1_50 gnd vdd FILL
XNAND2X1_87 BUFX2_400/A BUFX4_388/Y gnd NAND2X1_87/Y vdd NAND2X1
XFILL_0_XNOR2X1_61 gnd vdd FILL
XFILL_0_XNOR2X1_83 gnd vdd FILL
XFILL_1_NAND2X1_118 gnd vdd FILL
XFILL_0_XNOR2X1_94 gnd vdd FILL
XFILL_1_NAND2X1_107 gnd vdd FILL
XFILL_0_DFFPOSX1_319 gnd vdd FILL
XFILL_35_1 gnd vdd FILL
XFILL_0_DFFPOSX1_308 gnd vdd FILL
XFILL_0_NOR3X1_15 gnd vdd FILL
XOAI21X1_1431 INVX2_105/Y INVX1_221/Y OAI21X1_1431/C gnd OAI21X1_1433/A vdd OAI21X1
XOAI21X1_1420 OAI21X1_1420/A AOI21X1_60/Y OAI21X1_1420/C gnd OAI21X1_1420/Y vdd OAI21X1
XFILL_1_OAI21X1_1651 gnd vdd FILL
XFILL_1_OAI21X1_1640 gnd vdd FILL
XOAI21X1_1475 XNOR2X1_99/Y BUFX4_301/Y OAI21X1_1475/C gnd OAI21X1_1475/Y vdd OAI21X1
XFILL_0_BUFX4_292 gnd vdd FILL
XOAI21X1_1464 INVX2_98/A INVX2_109/Y OAI21X1_1464/C gnd OAI21X1_1466/A vdd OAI21X1
XFILL_0_BUFX4_281 gnd vdd FILL
XFILL_0_BUFX4_270 gnd vdd FILL
XOAI21X1_1442 OAI21X1_1442/A INVX8_2/A OAI21X1_1442/C gnd OAI21X1_1442/Y vdd OAI21X1
XOAI21X1_1453 XNOR2X1_95/Y INVX8_2/A OAI21X1_1453/C gnd OAI21X1_1453/Y vdd OAI21X1
XFILL_4_NOR3X1_14 gnd vdd FILL